* # FILE NAME: /HOME/ENGR/TRUTY1/CADENCE/SIMULATION/WHOLE_CKT/HSPICES/          
* SCHEMATIC/NETLIST/WHOLE_CKT.C.RAW
* NETLIST OUTPUT FOR HSPICES.
* GENERATED ON NOV 16 12:59:16 2009
   
* GLOBAL NET DEFINITIONS
.lib "/apps/Linux/cadence-Sept2009/ncsu-cdk-1.5.1/models/hspice/public/publicModel/tsmc18dP" PMOS 
.lib "/apps/Linux/cadence-Sept2009/ncsu-cdk-1.5.1/models/hspice/public/publicModel/tsmc18dN" NMOS 

.GLOBAL VDD! 
* FILE NAME: ECE482MEMORY_WHOLE_CKT_SCHEMATIC.S.
* SUBCIRCUIT FOR CELL: WHOLE_CKT.
* GENERATED FOR: HSPICES.
* GENERATED ON DEC  8 15:31:43 2009.
   
XI62 A0 A1 A2 CLK DFF_OUT_6 DFF_OUT_5 DFF_OUT_4 DFF_OUT_3 DFF_OUT_2 DFF_OUT_1 
+DFF_OUT_0 H_3 H_2 H_1 H_0 OUT_3 OUT_2 OUT_1 OUT_0 _DFF_OUT_6 _DFF_OUT_5 
+_DFF_OUT_4 _DFF_OUT_3 _DFF_OUT_2 _DFF_OUT_1 _DFF_OUT_0 0 VDD! PART1_G1 
C0 OUT_3 0  50E-15 M=1.0 
C3 OUT_0 0  50E-15 M=1.0 
C2 OUT_1 0  50E-15 M=1.0 
C1 OUT_2 0  50E-15 M=1.0 
XI52 CLK CLK_D2__ INV_1 
XI59 CLK_D3_ CLK_D3 INV_2 
XI56 CLK_D1__ NET066 INV_3 
XI58 CLK_D2 CLK_D2_ INV_4 
XI49 CLK CLK_D1_ INV_5 
XI54 NET067 CLK_D3_ INV_4 
XI61 NET068 NET067 INV_5 
XI53 CLK NET068 INV_6 
XI39 CLK CLK_D0_ INV_7 
XI50 NET066 CLK_D1 INV_8 
XI51 CLK_D2__ CLK_D2 INV_9 
XI55 CLK_D1_ CLK_D1__ INV_3 
VA2_GEN A2 0  PULSE 1.8 0.0 -3.00000000E-10 80E-12 80E-12 6.4E-9 12.8E-9 
V1 CLK 0  PULSE 0.0 1.8 0.0 80E-12 80E-12 700E-12 1.6E-9 
VA0_GEN A0 0  PULSE 1.8 0.0 -3.00000000E-10 80E-12 80E-12 1.6E-9 3.2E-9 
VA1_GEN A1 0  PULSE 1.8 0.0 -3.00000000E-10 80E-12 80E-12 3.2E-9 6.4E-9 
V0 VDD! 0  1.8 
   
* FILE NAME: NCSU_DIGITAL_PARTS_INV_CMOS_SCH.S.
* SUBCIRCUIT FOR CELL: INV.
* GENERATED FOR: HSPICES.
* GENERATED ON DEC  8 15:31:43 2009.
   
* TERMINAL MAPPING: A = A
*                   Y = Y
.SUBCKT INV_7 A Y 
M0 Y A 0 0  TSMC18DN  L=(180E-9) W=(450E-9) AD=+2.02500000E-13 
+AS=+2.02500000E-13 PD=+1.80000000E-06 PS=+1.80000000E-06 OFF 
M1 Y A VDD! VDD!  TSMC18DP  L=(180E-9) W=(900E-9) AD=+4.05000000E-13 
+AS=+4.05000000E-13 PD=+2.70000000E-06 PS=+2.70000000E-06 OFF 
   
.lib "$CDK_DIR/models/hspice/public/publicModel/tsmc18dP" PMOS 
.lib "$CDK_DIR/models/hspice/public/publicModel/tsmc18dN" NMOS 
   
   
   
* END OF SUBCIRCUIT DEFINITION.
.ENDS INV_7 
* FILE NAME: NCSU_DIGITAL_PARTS_INV_CMOS_SCH.S.
* SUBCIRCUIT FOR CELL: INV.
* GENERATED FOR: HSPICES.
* GENERATED ON DEC  8 15:31:43 2009.
   
* TERMINAL MAPPING: A = A
*                   Y = Y
.SUBCKT INV_6 A Y 
M0 Y A 0 0  TSMC18DN  L=(270E-9) W=(270E-9) AD=+1.21500000E-13 
+AS=+1.21500000E-13 PD=+1.44000000E-06 PS=+1.44000000E-06 OFF 
M1 Y A VDD! VDD!  TSMC18DP  L=(270E-9) W=(540E-9) AD=+2.43000000E-13 
+AS=+2.43000000E-13 PD=+1.98000000E-06 PS=+1.98000000E-06 OFF 
   
.lib "$CDK_DIR/models/hspice/public/publicModel/tsmc18dP" PMOS 
.lib "$CDK_DIR/models/hspice/public/publicModel/tsmc18dN" NMOS 
   
   
   
* END OF SUBCIRCUIT DEFINITION.
.ENDS INV_6 
* FILE NAME: NCSU_DIGITAL_PARTS_INV_CMOS_SCH.S.
* SUBCIRCUIT FOR CELL: INV.
* GENERATED FOR: HSPICES.
* GENERATED ON DEC  8 15:31:43 2009.
   
* TERMINAL MAPPING: A = A
*                   Y = Y
.SUBCKT INV_4 A Y 
M0 Y A 0 0  TSMC18DN  L=(180E-9) W=(360E-9) AD=+1.62000000E-13 
+AS=+1.62000000E-13 PD=+1.62000000E-06 PS=+1.62000000E-06 OFF 
M1 Y A VDD! VDD!  TSMC18DP  L=(180E-9) W=(810E-9) AD=+3.64500000E-13 
+AS=+3.64500000E-13 PD=+2.52000000E-06 PS=+2.52000000E-06 OFF 
   
.lib "$CDK_DIR/models/hspice/public/publicModel/tsmc18dP" PMOS 
.lib "$CDK_DIR/models/hspice/public/publicModel/tsmc18dN" NMOS 
   
   
   
* END OF SUBCIRCUIT DEFINITION.
.ENDS INV_4 
* FILE NAME: NCSU_DIGITAL_PARTS_INV_CMOS_SCH.S.
* SUBCIRCUIT FOR CELL: INV.
* GENERATED FOR: HSPICES.
* GENERATED ON DEC  8 15:31:43 2009.
   
* TERMINAL MAPPING: A = A
*                   Y = Y
.SUBCKT INV_3 A Y 
M0 Y A 0 0  TSMC18DN  L=(180E-9) W=(270E-9) AD=+1.21500000E-13 
+AS=+1.21500000E-13 PD=+1.44000000E-06 PS=+1.44000000E-06 OFF 
M1 Y A VDD! VDD!  TSMC18DP  L=(180E-9) W=(270E-9) AD=+1.21500000E-13 
+AS=+1.21500000E-13 PD=+1.44000000E-06 PS=+1.44000000E-06 OFF 
   
.lib "$CDK_DIR/models/hspice/public/publicModel/tsmc18dP" PMOS 
.lib "$CDK_DIR/models/hspice/public/publicModel/tsmc18dN" NMOS 
   
   
   
* END OF SUBCIRCUIT DEFINITION.
.ENDS INV_3 
* FILE NAME: NCSU_DIGITAL_PARTS_INV_CMOS_SCH.S.
* SUBCIRCUIT FOR CELL: INV.
* GENERATED FOR: HSPICES.
* GENERATED ON DEC  8 15:31:43 2009.
   
* TERMINAL MAPPING: A = A
*                   Y = Y
.SUBCKT INV_2 A Y 
M0 Y A 0 0  TSMC18DN  L=(180E-9) W=(540E-9) AD=+2.43000000E-13 
+AS=+2.43000000E-13 PD=+1.98000000E-06 PS=+1.98000000E-06 OFF 
M1 Y A VDD! VDD!  TSMC18DP  L=(180E-9) W=(270E-9) AD=+1.21500000E-13 
+AS=+1.21500000E-13 PD=+1.44000000E-06 PS=+1.44000000E-06 OFF 
   
.lib "$CDK_DIR/models/hspice/public/publicModel/tsmc18dP" PMOS 
.lib "$CDK_DIR/models/hspice/public/publicModel/tsmc18dN" NMOS 
   
   
   
* END OF SUBCIRCUIT DEFINITION.
.ENDS INV_2 
* FILE NAME: NCSU_DIGITAL_PARTS_INV_CMOS_SCH.S.
* SUBCIRCUIT FOR CELL: INV.
* GENERATED FOR: HSPICES.
* GENERATED ON DEC  8 15:31:43 2009.
   
* TERMINAL MAPPING: A = A
*                   Y = Y
.SUBCKT INV_1 A Y 
M0 Y A 0 0  TSMC18DN  L=(180E-9) W=(360E-9) AD=+1.62000000E-13 
+AS=+1.62000000E-13 PD=+1.62000000E-06 PS=+1.62000000E-06 OFF 
M1 Y A VDD! VDD!  TSMC18DP  L=(180E-9) W=(1.08E-6) AD=+4.86000000E-13 
+AS=+4.86000000E-13 PD=+3.06000000E-06 PS=+3.06000000E-06 OFF 
   
.lib "$CDK_DIR/models/hspice/public/publicModel/tsmc18dP" PMOS 
.lib "$CDK_DIR/models/hspice/public/publicModel/tsmc18dN" NMOS 
   
   
   
* END OF SUBCIRCUIT DEFINITION.
.ENDS INV_1 
* FILE NAME: NCSU_DIGITAL_PARTS_INV_CMOS_SCH.S.
* SUBCIRCUIT FOR CELL: INV.
* GENERATED FOR: HSPICES.
* GENERATED ON DEC  8 15:31:43 2009.
   
* TERMINAL MAPPING: A = A
*                   Y = Y
.SUBCKT INV_8 A Y 
M0 Y A 0 0  TSMC18DN  L=(180E-9) W=(360E-9) AD=+1.62000000E-13 
+AS=+1.62000000E-13 PD=+1.62000000E-06 PS=+1.62000000E-06 OFF 
M1 Y A VDD! VDD!  TSMC18DP  L=(180E-9) W=(540E-9) AD=+2.43000000E-13 
+AS=+2.43000000E-13 PD=+1.98000000E-06 PS=+1.98000000E-06 OFF 
   
.lib "$CDK_DIR/models/hspice/public/publicModel/tsmc18dP" PMOS 
.lib "$CDK_DIR/models/hspice/public/publicModel/tsmc18dN" NMOS 
   
   
   
* END OF SUBCIRCUIT DEFINITION.
.ENDS INV_8 
* FILE NAME: NCSU_DIGITAL_PARTS_INV_CMOS_SCH.S.
* SUBCIRCUIT FOR CELL: INV.
* GENERATED FOR: HSPICES.
* GENERATED ON DEC  8 15:31:43 2009.
   
* TERMINAL MAPPING: A = A
*                   Y = Y
.SUBCKT INV_9 A Y 
M0 Y A 0 0  TSMC18DN  L=(180E-9) W=(720E-9) AD=+3.24000000E-13 
+AS=+3.24000000E-13 PD=+2.34000000E-06 PS=+2.34000000E-06 OFF 
M1 Y A VDD! VDD!  TSMC18DP  L=(180E-9) W=(360E-9) AD=+1.62000000E-13 
+AS=+1.62000000E-13 PD=+1.62000000E-06 PS=+1.62000000E-06 OFF 
   
.lib "$CDK_DIR/models/hspice/public/publicModel/tsmc18dP" PMOS 
.lib "$CDK_DIR/models/hspice/public/publicModel/tsmc18dN" NMOS 
   
   
   
* END OF SUBCIRCUIT DEFINITION.
.ENDS INV_9 
* FILE NAME: NCSU_DIGITAL_PARTS_INV_CMOS_SCH.S.
* SUBCIRCUIT FOR CELL: INV.
* GENERATED FOR: HSPICES.
* GENERATED ON DEC  8 15:31:43 2009.
   
* TERMINAL MAPPING: A = A
*                   Y = Y
.SUBCKT INV_5 A Y 
M0 Y A 0 0  TSMC18DN  L=(270E-9) W=(270E-9) AD=+1.21500000E-13 
+AS=+1.21500000E-13 PD=+1.44000000E-06 PS=+1.44000000E-06 OFF 
M1 Y A VDD! VDD!  TSMC18DP  L=(270E-9) W=(270E-9) AD=+1.21500000E-13 
+AS=+1.21500000E-13 PD=+1.44000000E-06 PS=+1.44000000E-06 OFF 
   
.lib "$CDK_DIR/models/hspice/public/publicModel/tsmc18dP" PMOS 
.lib "$CDK_DIR/models/hspice/public/publicModel/tsmc18dN" NMOS 
   
   
   
* END OF SUBCIRCUIT DEFINITION.
.ENDS INV_5 
   
   
   
* FILE NAME: ECE482MEMORY_PART1_EXTRACTED.S.
* SUBCIRCUIT FOR CELL: PART1.
* GENERATED FOR: HSPICES.
* GENERATED ON DEC  8 15:31:42 2009.
   
* TERMINAL MAPPING: A0 = A0
*                   A1 = A1
*                   A2 = A2
*                   CLK = CLK
*                   DFF_OUT<6> = DFF_OUT_6
*                   DFF_OUT<5> = DFF_OUT_5
*                   DFF_OUT<4> = DFF_OUT_4
*                   DFF_OUT<3> = DFF_OUT_3
*                   DFF_OUT<2> = DFF_OUT_2
*                   DFF_OUT<1> = DFF_OUT_1
*                   DFF_OUT<0> = DFF_OUT_0
*                   H<3> = H_3
*                   H<2> = H_2
*                   H<1> = H_1
*                   H<0> = H_0
*                   OUT<3> = OUT_3
*                   OUT<2> = OUT_2
*                   OUT<1> = OUT_1
*                   OUT<0> = OUT_0
*                   _DFF_OUT<6> = _DFF_OUT_6
*                   _DFF_OUT<5> = _DFF_OUT_5
*                   _DFF_OUT<4> = _DFF_OUT_4
*                   _DFF_OUT<3> = _DFF_OUT_3
*                   _DFF_OUT<2> = _DFF_OUT_2
*                   _DFF_OUT<1> = _DFF_OUT_1
*                   _DFF_OUT<0> = _DFF_OUT_0
*                   GND = GND
*                   VDD = VDD
.SUBCKT PART1_G1 A0 A1 A2 CLK DFF_OUT_6 DFF_OUT_5 DFF_OUT_4 DFF_OUT_3 
+DFF_OUT_2 DFF_OUT_1 DFF_OUT_0 H_3 H_2 H_1 H_0 OUT_3 OUT_2 OUT_1 OUT_0 
+_DFF_OUT_6 _DFF_OUT_5 _DFF_OUT_4 _DFF_OUT_3 _DFF_OUT_2 _DFF_OUT_1 _DFF_OUT_0 
+GND VDD 
C190 VDD 143  38.4992999999998E-18 M=1.0 
C191 VDD 139  51.8561999999999E-18 M=1.0 
C192 VDD 128  58.1418E-18 M=1.0 
C193 VDD 102  26.7138000000001E-18 M=1.0 
C194 VDD _DFF_OUT_4  58.1418E-18 M=1.0 
C195 _DFF_OUT_2 VDD  40.0707E-18 M=1.0 
C196 GND 143  58.9275000000002E-18 M=1.0 
C197 GND 119  32.2137E-18 M=1.0 
C198 GND 118  32.2137E-18 M=1.0 
C199 GND 117  32.2137E-18 M=1.0 
C200 GND 116  32.2137E-18 M=1.0 
C201 GND 115  32.2137000000001E-18 M=1.0 
C202 GND 114  32.2137E-18 M=1.0 
C203 GND 113  32.2137000000001E-18 M=1.0 
C204 GND 102  109.998E-18 M=1.0 
C205 GND 95  39.285E-18 M=1.0 
C206 GND 16  230.9958E-18 M=1.0 
C207 GND _DFF_OUT_4  201.9249E-18 M=1.0 
C208 GND _DFF_OUT_3  206.6391E-18 M=1.0 
C209 GND _DFF_OUT_2  149.283E-18 M=1.0 
C210 CLK GND  206.6391E-18 M=1.0 
C211 _DFF_OUT_0 GND  206.6391E-18 M=1.0 
C212 DFF_OUT_4 GND  36.1422000000002E-18 M=1.0 
C213 _DFF_OUT_6 VDD  40.0707E-18 M=1.0 
C214 _DFF_OUT_6 GND  149.283E-18 M=1.0 
C215 112 114  62.3646E-18 M=1.0 
C216 102 111  62.3646E-18 M=1.0 
C217 95 112  62.3646E-18 M=1.0 
C218 95 111  62.3646E-18 M=1.0 
C219 67 84  62.3646E-18 M=1.0 
C220 67 76  62.3646E-18 M=1.0 
C221 67 70  62.3646E-18 M=1.0 
C222 60 70  62.3646E-18 M=1.0 
C223 28 74  62.3646E-18 M=1.0 
C224 26 84  62.3646E-18 M=1.0 
C225 16 74  62.3646E-18 M=1.0 
C226 1 81  62.3646E-18 M=1.0 
C227 1 10  62.3646E-18 M=1.0 
C228 VDD 143  46.3662000000001E-18 M=1.0 
C229 VDD 120  57.3146999999998E-18 M=1.0 
C230 VDD 118  56.6991E-18 M=1.0 
C231 VDD 116  56.6991E-18 M=1.0 
C232 VDD 114  56.6991E-18 M=1.0 
C233 VDD 102  54.2808E-18 M=1.0 
C234 VDD 95  56.6991E-18 M=1.0 
C235 VDD 88  79.0029E-18 M=1.0 
C236 VDD 81  99.0584999999999E-18 M=1.0 
C237 VDD 10  99.0584999999998E-18 M=1.0 
C238 VDD DFF_OUT_1  54.2808E-18 M=1.0 
C239 _DFF_OUT_3 VDD  27.1404E-18 M=1.0 
C240 DFF_OUT_0 VDD  27.1404E-18 M=1.0 
C241 _DFF_OUT_2 DFF_OUT_0  62.3646E-18 M=1.0 
C242 _DFF_OUT_1 VDD  27.1404E-18 M=1.0 
C243 GND 133  448.4826E-18 M=1.0 
C244 GND 124  94.068E-18 M=1.0 
C245 GND 119  209.3463E-18 M=1.0 
C246 GND 116  209.3463E-18 M=1.0 
C247 GND 115  209.3463E-18 M=1.0 
C248 GND 114  209.3463E-18 M=1.0 
C249 GND 111  314.4501E-18 M=1.0 
C250 GND 102  176.4513E-18 M=1.0 
C251 GND 95  195.0066E-18 M=1.0 
C252 GND 88  203.13E-18 M=1.0 
C253 GND 81  163.881E-18 M=1.0 
C254 GND 10  163.881E-18 M=1.0 
C255 GND 3  442.1286E-18 M=1.0 
C256 GND DFF_OUT_1  467.829000000001E-18 M=1.0 
C257 GND DFF_OUT_0  1.0597635E-15 M=1.0 
C258 CLK VDD  187.9047E-18 M=1.0 
C259 CLK GND  204.3828E-18 M=1.0 
C260 _DFF_OUT_0 VDD  27.1404E-18 M=1.0 
C261 _DFF_OUT_0 GND  170.2845E-18 M=1.0 
C262 _DFF_OUT_6 VDD  176.8356E-18 M=1.0 
C263 _DFF_OUT_6 DFF_OUT_4  152.442E-18 M=1.0 
C264 DFF_OUT_2 _DFF_OUT_0  62.3646E-18 M=1.0 
C265 112 114  55.3986E-18 M=1.0 
C266 102 111  104.8338E-18 M=1.0 
C267 95 111  119.3148E-18 M=1.0 
C268 95 102  297.5607E-18 M=1.0 
C269 81 110  55.3986E-18 M=1.0 
C270 67 93  65.0448E-18 M=1.0 
C271 67 84  65.0448E-18 M=1.0 
C272 67 76  65.0448E-18 M=1.0 
C273 67 70  65.0448E-18 M=1.0 
C274 60 76  65.0448E-18 M=1.0 
C275 60 70  65.0448E-18 M=1.0 
C276 28 74  65.0448E-18 M=1.0 
C277 26 93  65.0448E-18 M=1.0 
C278 26 84  65.0448E-18 M=1.0 
C279 23 28  65.0448E-18 M=1.0 
C280 16 74  64.945575E-18 M=1.0 
C281 16 21  65.0448E-18 M=1.0 
C282 10 110  55.3986E-18 M=1.0 
C283 2 74  60.31485E-18 M=1.0 
C284 2 17  60.31485E-18 M=1.0 
C285 1 81  120.3381E-18 M=1.0 
C286 1 10  120.70665E-18 M=1.0 
C287 _DFF_OUT_4 117  299.4885E-18 M=1.0 
C288 VDD 119  34.9776E-18 M=1.0 
C289 VDD 118  34.9776E-18 M=1.0 
C290 VDD 117  34.9776E-18 M=1.0 
C291 VDD 116  34.9776E-18 M=1.0 
C292 VDD 115  34.9776E-18 M=1.0 
C293 VDD 114  34.9776E-18 M=1.0 
C294 VDD 113  34.9776E-18 M=1.0 
C295 VDD 88  55.3986E-18 M=1.0 
C296 VDD 10  65.0448E-18 M=1.0 
C297 _DFF_OUT_3 116  299.4885E-18 M=1.0 
C298 _DFF_OUT_3 VDD  65.5065E-18 M=1.0 
C299 _DFF_OUT_2 115  299.4885E-18 M=1.0 
C300 _DFF_OUT_2 VDD  710.9973E-18 M=1.0 
C301 _DFF_OUT_1 114  299.4885E-18 M=1.0 
C302 _DFF_OUT_1 DFF_OUT_1  111.933E-18 M=1.0 
C303 _DFF_OUT_1 VDD  65.5065E-18 M=1.0 
C304 GND 119  48.9483E-18 M=1.0 
C305 GND 118  48.9483E-18 M=1.0 
C306 GND 117  48.9483E-18 M=1.0 
C307 GND 116  48.9483E-18 M=1.0 
C308 GND 115  48.9483E-18 M=1.0 
C309 GND 114  48.9483E-18 M=1.0 
C310 GND 113  48.9483E-18 M=1.0 
C311 GND 102  157.7223E-18 M=1.0 
C312 GND 95  107.1702E-18 M=1.0 
C313 GND 76  4.232592E-15 M=1.0 
C314 GND 70  3.3164172E-15 M=1.0 
C315 GND 28  2.4578964E-15 M=1.0 
C316 GND 3  23.74515E-18 M=1.0 
C317 GND _DFF_OUT_3  1.3545225E-15 M=1.0 
C318 GND DFF_OUT_0  55.3986E-18 M=1.0 
C319 GND _DFF_OUT_2  4.2521103E-15 M=1.0 
C320 GND _DFF_OUT_1  537.4107E-18 M=1.0 
C321 _DFF_OUT_0 113  299.4885E-18 M=1.0 
C322 _DFF_OUT_0 _DFF_OUT_2  55.3986E-18 M=1.0 
C323 _DFF_OUT_0 GND  2.73641355E-15 M=1.0 
C324 DFF_OUT_6 _DFF_OUT_4  37.944E-18 M=1.0 
C325 DFF_OUT_4 _DFF_OUT_4  55.3986E-18 M=1.0 
C326 DFF_OUT_4 _DFF_OUT_3  55.3986E-18 M=1.0 
C327 DFF_OUT_4 _DFF_OUT_0  69.534E-18 M=1.0 
C328 _DFF_OUT_6 119  299.4885E-18 M=1.0 
C329 _DFF_OUT_6 VDD  327.7071E-18 M=1.0 
C330 _DFF_OUT_6 DFF_OUT_0  55.3986E-18 M=1.0 
C331 _DFF_OUT_6 GND  4.345002E-15 M=1.0 
C332 _DFF_OUT_6 _DFF_OUT_0  55.3986E-18 M=1.0 
C333 DFF_OUT_3 _DFF_OUT_4  110.7972E-18 M=1.0 
C334 _DFF_OUT_5 118  299.4885E-18 M=1.0 
C335 _DFF_OUT_5 DFF_OUT_5  55.3986E-18 M=1.0 
C336 DFF_OUT_2 _DFF_OUT_2  55.3986E-18 M=1.0 
C337 DFF_OUT_2 _DFF_OUT_0  69.3378E-18 M=1.0 
C338 102 112  52.3044E-18 M=1.0 
C339 95 111  37.6677E-18 M=1.0 
C340 3 110  175.510125E-18 M=1.0 
C341 3 93  104.6088E-18 M=1.0 
C342 3 88  37.6677E-18 M=1.0 
C343 3 84  104.6088E-18 M=1.0 
C344 3 81  150.907725E-18 M=1.0 
C345 3 76  104.6088E-18 M=1.0 
C346 3 70  104.6088E-18 M=1.0 
C347 3 28  104.6088E-18 M=1.0 
C348 3 16  104.6088E-18 M=1.0 
C349 3 10  163.433925E-18 M=1.0 
C350 2 3  104.6088E-18 M=1.0 
C351 1 3  104.6088E-18 M=1.0 
C352 VDD 3  388.04715E-18 M=1.0 
C353 _DFF_OUT_2 DFF_OUT_0  173.054925E-18 M=1.0 
C354 _DFF_OUT_1 _DFF_OUT_2  781.97805E-18 M=1.0 
C355 GND 139  200.52585E-18 M=1.0 
C356 GND 3  1.0969011E-15 M=1.0 
C357 GND _DFF_OUT_3  123.4143E-18 M=1.0 
C358 _DFF_OUT_0 _DFF_OUT_1  116.5779E-18 M=1.0 
C359 _DFF_OUT_0 GND  123.4143E-18 M=1.0 
C360 _DFF_OUT_6 _DFF_OUT_2  52.3044E-18 M=1.0 
C361 _DFF_OUT_6 _DFF_OUT_1  52.3044E-18 M=1.0 
C362 DFF_OUT_2 _DFF_OUT_6  52.3044E-18 M=1.0 
C363 DFF_OUT_1 133  495.25155E-18 M=1.0 
C364 _DFF_OUT_2 DFF_OUT_1  49.5477E-18 M=1.0 
C365 _DFF_OUT_6 DFF_OUT_1  49.5477E-18 M=1.0 
C366 VDD 111  362.600549999999E-18 M=1.0 
C367 VDD 110  280.494900000001E-18 M=1.0 
C368 VDD 105  26.7138E-18 M=1.0 
C369 GND 105  109.998E-18 M=1.0 
C370 GND 98  39.285E-18 M=1.0 
C371 GND 84  318.9942E-18 M=1.0 
C372 GND 70  324.4941E-18 M=1.0 
C373 GND 1  230.9958E-18 M=1.0 
C374 GND VDD  958.161150000001E-18 M=1.0 
C375 112 117  62.3646E-18 M=1.0 
C376 105 111  62.3646E-18 M=1.0 
C377 98 112  62.3646E-18 M=1.0 
C378 98 111  62.3646E-18 M=1.0 
C379 73 84  62.3646E-18 M=1.0 
C380 73 76  62.3646E-18 M=1.0 
C381 68 93  62.3646E-18 M=1.0 
C382 68 84  62.3646E-18 M=1.0 
C383 68 76  62.3646E-18 M=1.0 
C384 68 70  62.3646E-18 M=1.0 
C385 1 83  62.3646E-18 M=1.0 
C386 1 82  62.3646E-18 M=1.0 
C387 VDD 117  56.6991E-18 M=1.0 
C388 VDD 110  646.6122E-18 M=1.0 
C389 VDD 105  54.2808E-18 M=1.0 
C390 VDD 98  56.6991E-18 M=1.0 
C391 VDD 89  106.7094E-18 M=1.0 
C392 VDD 83  89.3960999999999E-18 M=1.0 
C393 VDD 82  89.3961000000001E-18 M=1.0 
C394 VDD 5  74.331E-18 M=1.0 
C395 GND 117  209.3463E-18 M=1.0 
C396 GND 105  176.4513E-18 M=1.0 
C397 GND 98  195.0066E-18 M=1.0 
C398 GND 93  478.3374E-18 M=1.0 
C399 GND 90  883.9386E-18 M=1.0 
C400 GND 83  164.9034E-18 M=1.0 
C401 GND 82  164.9034E-18 M=1.0 
C402 GND 1  741.3435E-18 M=1.0 
C403 112 117  55.3986E-18 M=1.0 
C404 105 112  78.3504E-18 M=1.0 
C405 105 111  104.8338E-18 M=1.0 
C406 98 112  50.39325E-18 M=1.0 
C407 98 111  119.3148E-18 M=1.0 
C408 98 105  297.5607E-18 M=1.0 
C409 83 110  55.3986E-18 M=1.0 
C410 82 110  55.3986E-18 M=1.0 
C411 68 93  65.0448E-18 M=1.0 
C412 68 84  65.0448E-18 M=1.0 
C413 68 76  65.0448E-18 M=1.0 
C414 28 68  65.0448E-18 M=1.0 
C415 16 77  60.31485E-18 M=1.0 
C416 2 79  60.31485E-18 M=1.0 
C417 1 110  582.5736E-18 M=1.0 
C418 1 83  55.62945E-18 M=1.0 
C419 1 82  120.3381E-18 M=1.0 
C420 VDD 28  1.6542396E-15 M=1.0 
C421 VDD 16  874.9422E-18 M=1.0 
C422 VDD 5  76.4973E-18 M=1.0 
C423 GND 105  157.7223E-18 M=1.0 
C424 GND 98  107.1702E-18 M=1.0 
C425 GND 83  293.6736E-18 M=1.0 
C426 GND 82  293.6736E-18 M=1.0 
C427 105 112  52.3044E-18 M=1.0 
C428 98 111  37.6677E-18 M=1.0 
C429 5 110  156.9132E-18 M=1.0 
C430 5 90  37.6677E-18 M=1.0 
C431 5 84  104.6088E-18 M=1.0 
C432 5 83  148.216275E-18 M=1.0 
C433 5 28  104.6088E-18 M=1.0 
C434 5 16  104.6088E-18 M=1.0 
C435 4 110  156.9132E-18 M=1.0 
C436 4 93  104.6088E-18 M=1.0 
C437 4 89  37.6677E-18 M=1.0 
C438 4 82  99.2826E-18 M=1.0 
C439 4 28  138.312E-18 M=1.0 
C440 2 5  104.6088E-18 M=1.0 
C441 GND 110  326.0655E-18 M=1.0 
C442 GND 93  230.9958E-18 M=1.0 
C443 GND 76  230.9958E-18 M=1.0 
C444 GND 28  318.9942E-18 M=1.0 
C445 GND 2  307.9944E-18 M=1.0 
C446 58 76  62.3646E-18 M=1.0 
C447 57 76  62.3646E-18 M=1.0 
C448 57 70  62.3646E-18 M=1.0 
C449 25 93  62.3646E-18 M=1.0 
C450 24 93  62.3646E-18 M=1.0 
C451 19 28  62.3646E-18 M=1.0 
C452 16 19  62.3646E-18 M=1.0 
C453 16 18  62.3646E-18 M=1.0 
C454 1 13  62.3646E-18 M=1.0 
C455 1 12  62.3646E-18 M=1.0 
C456 1 11  62.3646E-18 M=1.0 
C457 VDD 13  99.0585E-18 M=1.0 
C458 VDD 12  89.3960999999999E-18 M=1.0 
C459 VDD 11  89.3961000000001E-18 M=1.0 
C460 VDD 4  72.4293E-18 M=1.0 
C461 GND 84  442.683E-18 M=1.0 
C462 GND 70  231.26985E-18 M=1.0 
C463 GND 16  601.947900000001E-18 M=1.0 
C464 GND 13  163.881E-18 M=1.0 
C465 GND 12  164.9034E-18 M=1.0 
C466 GND 11  164.9034E-18 M=1.0 
C467 GND 6  1.5927561E-15 M=1.0 
C468 GND 5  647.3034E-18 M=1.0 
C469 GND 4  254.1132E-18 M=1.0 
C470 68 70  65.0448E-18 M=1.0 
C471 63 70  65.0448E-18 M=1.0 
C472 62 70  65.0448E-18 M=1.0 
C473 61 76  65.0448E-18 M=1.0 
C474 59 84  65.0448E-18 M=1.0 
C475 58 84  65.0448E-18 M=1.0 
C476 58 76  65.0448E-18 M=1.0 
C477 57 84  65.0448E-18 M=1.0 
C478 57 76  65.0448E-18 M=1.0 
C479 57 70  65.0448E-18 M=1.0 
C480 27 93  65.0448E-18 M=1.0 
C481 25 93  65.0448E-18 M=1.0 
C482 25 28  65.0448E-18 M=1.0 
C483 24 93  65.0448E-18 M=1.0 
C484 24 28  65.0448E-18 M=1.0 
C485 19 28  65.0448E-18 M=1.0 
C486 16 22  65.0448E-18 M=1.0 
C487 16 19  65.0448E-18 M=1.0 
C488 16 18  65.0448E-18 M=1.0 
C489 13 110  55.3986E-18 M=1.0 
C490 12 110  55.3986E-18 M=1.0 
C491 11 110  55.3986E-18 M=1.0 
C492 2 20  60.31485E-18 M=1.0 
C493 2 19  60.31485E-18 M=1.0 
C494 2 18  60.31485E-18 M=1.0 
C495 1 13  64.84635E-18 M=1.0 
C496 1 12  120.70665E-18 M=1.0 
C497 1 11  120.70665E-18 M=1.0 
C498 VDD 110  1.3851225E-15 M=1.0 
C499 VDD 84  260.1792E-18 M=1.0 
C500 VDD 76  260.1792E-18 M=1.0 
C501 VDD 70  195.1344E-18 M=1.0 
C502 VDD 13  65.0448E-18 M=1.0 
C503 VDD 12  65.0448E-18 M=1.0 
C504 VDD 11  65.0448E-18 M=1.0 
C505 VDD 2  874.9422E-18 M=1.0 
C506 GND 110  5.6929644E-15 M=1.0 
C507 GND 2  3.4484679E-15 M=1.0 
C508 GND 1  3.1785741E-15 M=1.0 
C509 5 93  104.6088E-18 M=1.0 
C510 5 76  104.6088E-18 M=1.0 
C511 5 70  104.6088E-18 M=1.0 
C512 5 12  161.071875E-18 M=1.0 
C513 4 84  138.312E-18 M=1.0 
C514 4 76  104.6088E-18 M=1.0 
C515 4 70  138.312E-18 M=1.0 
C516 4 16  104.6088E-18 M=1.0 
C517 4 11  113.6682E-18 M=1.0 
C518 2 4  104.6088E-18 M=1.0 
C519 1 5  104.6088E-18 M=1.0 
C520 1 4  104.6088E-18 M=1.0 
C521 VDD 5  185.822325E-18 M=1.0 
C522 VDD 4  134.736975E-18 M=1.0 
C523 GND 5  985.361175E-18 M=1.0 
C524 GND 4  973.752075000001E-18 M=1.0 
C525 VDD 112  252.9954E-18 M=1.0 
C526 VDD 107  26.7138E-18 M=1.0 
C527 VDD 106  26.7138E-18 M=1.0 
C528 GND 111  288.74475E-18 M=1.0 
C529 GND 107  109.998E-18 M=1.0 
C530 GND 106  109.998E-18 M=1.0 
C531 GND 100  39.285E-18 M=1.0 
C532 GND 99  39.285E-18 M=1.0 
C533 112 119  62.3646E-18 M=1.0 
C534 112 118  62.3646E-18 M=1.0 
C535 107 111  62.3646E-18 M=1.0 
C536 106 111  62.3646E-18 M=1.0 
C537 100 112  62.3646E-18 M=1.0 
C538 100 111  62.3646E-18 M=1.0 
C539 99 112  62.3646E-18 M=1.0 
C540 99 111  62.3646E-18 M=1.0 
C541 VDD 119  56.6991E-18 M=1.0 
C542 VDD 111  182.6118E-18 M=1.0 
C543 VDD 107  54.2808E-18 M=1.0 
C544 VDD 106  54.2808E-18 M=1.0 
C545 VDD 100  56.6991E-18 M=1.0 
C546 VDD 99  56.6991E-18 M=1.0 
C547 VDD 90  81.4212E-18 M=1.0 
C548 VDD 6  81.4212E-18 M=1.0 
C549 GND 118  209.3463E-18 M=1.0 
C550 GND 107  176.4513E-18 M=1.0 
C551 GND 106  176.4513E-18 M=1.0 
C552 GND 100  195.0066E-18 M=1.0 
C553 GND 99  195.0066E-18 M=1.0 
C554 112 119  55.3986E-18 M=1.0 
C555 112 118  55.3986E-18 M=1.0 
C556 107 112  78.3504E-18 M=1.0 
C557 107 111  104.8338E-18 M=1.0 
C558 106 112  78.3504E-18 M=1.0 
C559 106 111  104.8338E-18 M=1.0 
C560 100 112  50.39325E-18 M=1.0 
C561 100 111  119.3148E-18 M=1.0 
C562 100 107  297.5607E-18 M=1.0 
C563 99 112  50.39325E-18 M=1.0 
C564 99 111  119.3148E-18 M=1.0 
C565 99 106  297.5607E-18 M=1.0 
C566 VDD 107  65.5065E-18 M=1.0 
C567 VDD 106  65.5065E-18 M=1.0 
C568 VDD 105  65.5065E-18 M=1.0 
C569 VDD 100  34.9776E-18 M=1.0 
C570 VDD 99  34.9776E-18 M=1.0 
C571 VDD 98  34.9776E-18 M=1.0 
C572 VDD 90  55.3986E-18 M=1.0 
C573 VDD 6  55.3986E-18 M=1.0 
C574 GND 112  7.38479385000001E-15 M=1.0 
C575 GND 111  2.95639245E-15 M=1.0 
C576 GND 107  157.7223E-18 M=1.0 
C577 GND 106  157.7223E-18 M=1.0 
C578 GND 100  107.1702E-18 M=1.0 
C579 GND 99  107.1702E-18 M=1.0 
C580 111 112  1.8995076E-15 M=1.0 
C581 106 112  52.3044E-18 M=1.0 
C582 100 111  37.6677E-18 M=1.0 
C583 99 111  37.6677E-18 M=1.0 
C584 VDD 112  1.6100667E-15 M=1.0 
C585 VDD 111  2.24015535E-15 M=1.0 
C586 VDD 104  26.7138E-18 M=1.0 
C587 VDD 103  26.7138E-18 M=1.0 
C588 GND 112  302.4945E-18 M=1.0 
C589 GND 104  109.998E-18 M=1.0 
C590 GND 103  109.998E-18 M=1.0 
C591 GND 97  39.285E-18 M=1.0 
C592 GND 96  39.285E-18 M=1.0 
C593 112 116  62.3646E-18 M=1.0 
C594 112 115  62.3646E-18 M=1.0 
C595 104 111  62.3646E-18 M=1.0 
C596 103 111  62.3646E-18 M=1.0 
C597 97 112  62.3646E-18 M=1.0 
C598 97 111  62.3646E-18 M=1.0 
C599 96 112  62.3646E-18 M=1.0 
C600 96 111  62.3646E-18 M=1.0 
C601 VDD 115  56.6991E-18 M=1.0 
C602 VDD 104  54.2808E-18 M=1.0 
C603 VDD 103  54.2808E-18 M=1.0 
C604 VDD 97  56.6991E-18 M=1.0 
C605 VDD 96  56.6991E-18 M=1.0 
C606 GND 112  377.2269E-18 M=1.0 
C607 GND 104  176.4513E-18 M=1.0 
C608 GND 103  176.4513E-18 M=1.0 
C609 GND 97  195.0066E-18 M=1.0 
C610 GND 96  195.0066E-18 M=1.0 
C611 GND 89  460.3761E-18 M=1.0 
C612 GND VDD  6.01515495E-15 M=1.0 
C613 112 116  55.3986E-18 M=1.0 
C614 112 115  55.3986E-18 M=1.0 
C615 104 112  78.3504E-18 M=1.0 
C616 104 111  104.8338E-18 M=1.0 
C617 103 112  78.3504E-18 M=1.0 
C618 103 111  104.8338E-18 M=1.0 
C619 102 112  78.3504E-18 M=1.0 
C620 97 112  50.39325E-18 M=1.0 
C621 97 111  119.3148E-18 M=1.0 
C622 97 104  297.5607E-18 M=1.0 
C623 96 112  50.39325E-18 M=1.0 
C624 96 111  119.3148E-18 M=1.0 
C625 96 103  297.5607E-18 M=1.0 
C626 95 112  50.39325E-18 M=1.0 
C627 VDD 104  65.5065E-18 M=1.0 
C628 VDD 103  65.5065E-18 M=1.0 
C629 VDD 97  34.9776E-18 M=1.0 
C630 VDD 96  34.9776E-18 M=1.0 
C631 VDD 89  55.3986E-18 M=1.0 
C632 VDD 4  73.85085E-18 M=1.0 
C633 GND 104  157.7223E-18 M=1.0 
C634 GND 103  157.7223E-18 M=1.0 
C635 GND 97  107.1702E-18 M=1.0 
C636 GND 96  107.1702E-18 M=1.0 
C637 104 112  52.3044E-18 M=1.0 
C638 103 112  52.3044E-18 M=1.0 
C639 97 111  37.6677E-18 M=1.0 
C640 96 111  37.6677E-18 M=1.0 
C641 VDD 87  53.4276E-18 M=1.0 
C642 VDD 66  53.4276E-18 M=1.0 
C643 VDD 65  139.0689E-18 M=1.0 
C644 VDD 64  53.4276000000002E-18 M=1.0 
C645 VDD 8  157.925700000001E-18 M=1.0 
C646 GND 108  129.640499999998E-18 M=1.0 
C647 GND 86  369.279000000001E-18 M=1.0 
C648 GND 72  29.8566000000003E-18 M=1.0 
C649 GND 71  29.8566000000001E-18 M=1.0 
C650 GND 64  182.2824E-18 M=1.0 
C651 84 86  62.3646E-18 M=1.0 
C652 76 87  124.7292E-18 M=1.0 
C653 72 108  62.3646E-18 M=1.0 
C654 71 108  62.3646000000001E-18 M=1.0 
C655 70 86  124.7292E-18 M=1.0 
C656 66 84  124.7292E-18 M=1.0 
C657 65 76  62.3646E-18 M=1.0 
C658 65 70  62.3646E-18 M=1.0 
C659 VDD 109  114.8382E-18 M=1.0 
C660 VDD 87  27.1404E-18 M=1.0 
C661 VDD 84  76.0680000000001E-18 M=1.0 
C662 VDD 76  76.0680000000001E-18 M=1.0 
C663 VDD 72  46.674E-18 M=1.0 
C664 VDD 71  46.6740000000001E-18 M=1.0 
C665 VDD 70  76.0680000000001E-18 M=1.0 
C666 VDD 66  61.8380999999999E-18 M=1.0 
C667 VDD 64  54.2808000000002E-18 M=1.0 
C668 VDD 8  59.6339999999999E-18 M=1.0 
C669 VDD A1  27.1404000000001E-18 M=1.0 
C670 GND 110  1.4370291E-15 M=1.0 
C671 GND 109  143.2593E-18 M=1.0 
C672 GND 87  1.2551877E-15 M=1.0 
C673 GND 76  349.0218E-18 M=1.0 
C674 GND 72  205.6968E-18 M=1.0 
C675 GND 71  188.6859E-18 M=1.0 
C676 GND 66  1.4018382E-15 M=1.0 
C677 GND 65  767.791799999999E-18 M=1.0 
C678 GND 64  167.6628E-18 M=1.0 
C679 GND 9  771.4521E-18 M=1.0 
C680 GND A1  65.1743999999999E-18 M=1.0 
C681 CLK 71  62.3646000000001E-18 M=1.0 
C682 CLK 64  62.3646E-18 M=1.0 
C683 86 87  395.226E-18 M=1.0 
C684 84 93  110.7972E-18 M=1.0 
C685 84 86  146.0529E-18 M=1.0 
C686 76 93  110.7972E-18 M=1.0 
C687 76 84  110.7972E-18 M=1.0 
C688 72 108  55.3986E-18 M=1.0 
C689 71 108  75.29535E-18 M=1.0 
C690 70 93  55.3986E-18 M=1.0 
C691 70 84  55.3986E-18 M=1.0 
C692 70 76  55.3986E-18 M=1.0 
C693 66 87  55.3986E-18 M=1.0 
C694 66 86  55.3986E-18 M=1.0 
C695 66 84  55.3986E-18 M=1.0 
C696 66 76  55.3986E-18 M=1.0 
C697 66 70  55.3986E-18 M=1.0 
C698 65 87  221.5944E-18 M=1.0 
C699 65 86  221.5944E-18 M=1.0 
C700 65 76  55.93725E-18 M=1.0 
C701 65 72  345.2904E-18 M=1.0 
C702 65 70  55.93725E-18 M=1.0 
C703 65 66  55.3986E-18 M=1.0 
C704 64 108  201.6873E-18 M=1.0 
C705 64 71  342.873E-18 M=1.0 
C706 28 84  110.7972E-18 M=1.0 
C707 28 76  110.7972E-18 M=1.0 
C708 28 70  55.3986000000001E-18 M=1.0 
C709 16 84  110.7972E-18 M=1.0 
C710 16 76  110.7972E-18 M=1.0 
C711 16 70  55.3986E-18 M=1.0 
C712 16 28  110.7972E-18 M=1.0 
C713 9 87  55.3986E-18 M=1.0 
C714 9 65  55.3986E-18 M=1.0 
C715 8 87  55.3986E-18 M=1.0 
C716 8 86  55.3986E-18 M=1.0 
C717 8 84  55.3986E-18 M=1.0 
C718 8 76  55.3986E-18 M=1.0 
C719 8 70  55.3986E-18 M=1.0 
C720 8 66  221.5944E-18 M=1.0 
C721 8 65  55.3986E-18 M=1.0 
C722 8 9  311.0229E-18 M=1.0 
C723 2 84  110.7972E-18 M=1.0 
C724 2 76  110.7972E-18 M=1.0 
C725 2 70  55.3986E-18 M=1.0 
C726 2 28  110.7972E-18 M=1.0 
C727 1 84  110.7972E-18 M=1.0 
C728 1 76  110.7972E-18 M=1.0 
C729 1 70  55.3986E-18 M=1.0 
C730 1 16  110.7972E-18 M=1.0 
C731 1 2  110.7972E-18 M=1.0 
C732 VDD 72  34.9776E-18 M=1.0 
C733 VDD 71  34.9776E-18 M=1.0 
C734 VDD 65  1.0735866E-15 M=1.0 
C735 VDD 64  65.5065E-18 M=1.0 
C736 VDD 15  34.9776E-18 M=1.0 
C737 VDD 14  34.9776E-18 M=1.0 
C738 VDD 8  445.7412E-18 M=1.0 
C739 VDD 7  65.5065E-18 M=1.0 
C740 VDD A1  55.3986000000001E-18 M=1.0 
C741 GND 93  4.7994795E-15 M=1.0 
C742 GND 84  4.247406E-15 M=1.0 
C743 GND 72  57.4344E-18 M=1.0 
C744 GND 71  49.167E-18 M=1.0 
C745 GND 65  1.0176642E-15 M=1.0 
C746 GND 64  222.9867E-18 M=1.0 
C747 GND 8  2.6106372E-15 M=1.0 
C748 GND VDD  32.52697155E-15 M=1.0 
C749 CLK 71  90.3762E-18 M=1.0 
C750 CLK 64  143.21295E-18 M=1.0 
C751 CLK VDD  1.32828435E-15 M=1.0 
C752 84 110  209.2176E-18 M=1.0 
C753 76 110  104.6088E-18 M=1.0 
C754 70 110  104.6088E-18 M=1.0 
C755 64 108  69.4476E-18 M=1.0 
C756 28 110  104.6088E-18 M=1.0 
C757 16 110  104.6088E-18 M=1.0 
C758 2 110  104.6088E-18 M=1.0 
C759 GND 110  2.410597575E-15 M=1.0 
C760 GND 108  1.128732075E-15 M=1.0 
C761 CLK 71  52.3044000000001E-18 M=1.0 
C762 CLK 64  94.4298E-18 M=1.0 
C763 VDD 86  129.6405E-18 M=1.0 
C764 VDD 9  62.8560000000001E-18 M=1.0 
C765 GND 87  204.282E-18 M=1.0 
C766 GND 66  166.5684E-18 M=1.0 
C767 GND 65  350.422200000001E-18 M=1.0 
C768 GND 9  147.7116E-18 M=1.0 
C769 28 86  62.3646E-18 M=1.0 
C770 16 87  124.7292E-18 M=1.0 
C771 9 28  124.7292E-18 M=1.0 
C772 9 16  62.3646E-18 M=1.0 
C773 2 66  124.7292E-18 M=1.0 
C774 2 9  62.3646E-18 M=1.0 
C775 1 87  124.7292E-18 M=1.0 
C776 1 66  62.3646E-18 M=1.0 
C777 VDD 86  35.2638E-18 M=1.0 
C778 VDD 65  81.0251999999999E-18 M=1.0 
C779 VDD 28  76.0680000000001E-18 M=1.0 
C780 VDD 16  76.0680000000001E-18 M=1.0 
C781 VDD 9  35.2638E-18 M=1.0 
C782 VDD 2  76.0680000000001E-18 M=1.0 
C783 VDD 1  76.0680000000001E-18 M=1.0 
C784 GND 86  1.0601919E-15 M=1.0 
C785 GND 28  564.3918E-18 M=1.0 
C786 GND 2  757.578599999999E-18 M=1.0 
C787 28 93  110.7972E-18 M=1.0 
C788 28 86  55.93725E-18 M=1.0 
C789 28 66  180.7992E-18 M=1.0 
C790 16 93  110.7972E-18 M=1.0 
C791 16 66  219.384E-18 M=1.0 
C792 9 86  55.3986E-18 M=1.0 
C793 9 66  166.1958E-18 M=1.0 
C794 9 28  55.3986E-18 M=1.0 
C795 9 16  111.33585E-18 M=1.0 
C796 2 93  110.7972E-18 M=1.0 
C797 2 66  55.3986E-18 M=1.0 
C798 2 16  110.7972E-18 M=1.0 
C799 2 9  55.3986E-18 M=1.0 
C800 1 93  110.7972E-18 M=1.0 
C801 1 66  55.3986E-18 M=1.0 
C802 1 28  110.7972E-18 M=1.0 
C803 1 9  55.3986E-18 M=1.0 
C804 VDD 93  1.3095432E-15 M=1.0 
C805 VDD 87  1.3209156E-15 M=1.0 
C806 VDD 86  1.0597788E-15 M=1.0 
C807 VDD 9  204.72975E-18 M=1.0 
C808 VDD 1  1.02615435E-15 M=1.0 