* # FILE NAME: /HOME/ENGR/TRUTY1/CADENCE/SIMULATION/WHOLE_CKT/HSPICES/          
* SCHEMATIC/NETLIST/WHOLE_CKT.C.RAW
* NETLIST OUTPUT FOR HSPICES.
* GENERATED ON DEC 8 16:24:54 2009
   
* GLOBAL NET DEFINITIONS
.GLOBAL VDD! 
* FILE NAME: ECE482MEMORY_WHOLE_CKT_SCHEMATIC.S.
* SUBCIRCUIT FOR CELL: WHOLE_CKT.
* GENERATED FOR: HSPICES.
* GENERATED ON DEC  8 16:24:55 2009.
   
XI62 A0 A1 A2 CLK DFF_OUT_6 DFF_OUT_5 DFF_OUT_4 DFF_OUT_3 DFF_OUT_2 DFF_OUT_1 
+DFF_OUT_0 H_3 H_2 H_1 H_0 OUT_3 OUT_2 OUT_1 OUT_0 _DFF_OUT_6 _DFF_OUT_5 
+_DFF_OUT_4 _DFF_OUT_3 _DFF_OUT_2 _DFF_OUT_1 _DFF_OUT_0 0 VDD! PART1_G1 
C0 OUT_3 0  50E-15 M=1.0 
C3 OUT_0 0  50E-15 M=1.0 
C2 OUT_1 0  50E-15 M=1.0 
C1 OUT_2 0  50E-15 M=1.0 
VA2_GEN A2 0  PULSE 1.8 0.0 -3.00000000E-10 80E-12 80E-12 6.4E-9 12.8E-9 
V1 CLK 0  PULSE 0.0 1.8 0.0 80E-12 80E-12 700E-12 1.6E-9 
VA0_GEN A0 0  PULSE 1.8 0.0 -3.00000000E-10 80E-12 80E-12 1.6E-9 3.2E-9 
VA1_GEN A1 0  PULSE 1.8 0.0 -3.00000000E-10 80E-12 80E-12 3.2E-9 6.4E-9 
V0 VDD! 0  1.8 
   
   
   
   
* FILE NAME: ECE482MEMORY_PART1_EXTRACTED.S.
* SUBCIRCUIT FOR CELL: PART1.
* GENERATED FOR: HSPICES.
* GENERATED ON DEC  8 16:24:54 2009.
   
* TERMINAL MAPPING: A0 = A0
*                   A1 = A1
*                   A2 = A2
*                   CLK = CLK
*                   DFF_OUT<6> = DFF_OUT_6
*                   DFF_OUT<5> = DFF_OUT_5
*                   DFF_OUT<4> = DFF_OUT_4
*                   DFF_OUT<3> = DFF_OUT_3
*                   DFF_OUT<2> = DFF_OUT_2
*                   DFF_OUT<1> = DFF_OUT_1
*                   DFF_OUT<0> = DFF_OUT_0
*                   H<3> = H_3
*                   H<2> = H_2
*                   H<1> = H_1
*                   H<0> = H_0
*                   OUT<3> = OUT_3
*                   OUT<2> = OUT_2
*                   OUT<1> = OUT_1
*                   OUT<0> = OUT_0
*                   _DFF_OUT<6> = _DFF_OUT_6
*                   _DFF_OUT<5> = _DFF_OUT_5
*                   _DFF_OUT<4> = _DFF_OUT_4
*                   _DFF_OUT<3> = _DFF_OUT_3
*                   _DFF_OUT<2> = _DFF_OUT_2
*                   _DFF_OUT<1> = _DFF_OUT_1
*                   _DFF_OUT<0> = _DFF_OUT_0
*                   GND = GND
*                   VDD = VDD
.SUBCKT PART1_G1 A0 A1 A2 CLK DFF_OUT_6 DFF_OUT_5 DFF_OUT_4 DFF_OUT_3 
+DFF_OUT_2 DFF_OUT_1 DFF_OUT_0 H_3 H_2 H_1 H_0 OUT_3 OUT_2 OUT_1 OUT_0 
+_DFF_OUT_6 _DFF_OUT_5 _DFF_OUT_4 _DFF_OUT_3 _DFF_OUT_2 _DFF_OUT_1 _DFF_OUT_0 
+GND VDD 
C190 VDD 143  38.4992999999998E-18 M=1.0 
C191 VDD 109  280.494900000001E-18 M=1.0 
C192 VDD 102  26.7138000000001E-18 M=1.0 
C193 VDD _DFF_OUT_4  58.1418E-18 M=1.0 
C194 _DFF_OUT_2 VDD  40.0707E-18 M=1.0 
C195 GND 119  32.2137E-18 M=1.0 
C196 GND 118  32.2137E-18 M=1.0 
C197 GND 117  32.2137E-18 M=1.0 
C198 GND 116  32.2137E-18 M=1.0 
C199 GND 115  32.2137000000001E-18 M=1.0 
C200 GND 114  32.2137E-18 M=1.0 
C201 GND 113  32.2137000000001E-18 M=1.0 
C202 GND 112  318.9942E-18 M=1.0 
C203 GND _DFF_OUT_3  206.6391E-18 M=1.0 
C204 GND _DFF_OUT_2  149.283E-18 M=1.0 
C205 GND _DFF_OUT_1  206.6391E-18 M=1.0 
C206 _DFF_OUT_0 GND  206.6391E-18 M=1.0 
C207 DFF_OUT_4 GND  36.1422000000002E-18 M=1.0 
C208 _DFF_OUT_6 VDD  40.0707E-18 M=1.0 
C209 _DFF_OUT_6 GND  149.283E-18 M=1.0 
C210 112 114  62.3646E-18 M=1.0 
C211 102 111  62.3646E-18 M=1.0 
C212 95 112  62.3646E-18 M=1.0 
C213 95 111  62.3646E-18 M=1.0 
C214 67 84  62.3646E-18 M=1.0 
C215 67 76  62.3646E-18 M=1.0 
C216 67 70  62.3646E-18 M=1.0 
C217 60 70  62.3646E-18 M=1.0 
C218 28 74  62.3646E-18 M=1.0 
C219 26 84  62.3646E-18 M=1.0 
C220 16 74  62.3646E-18 M=1.0 
C221 1 81  62.3646E-18 M=1.0 
C222 1 10  62.3646E-18 M=1.0 
C223 VDD 143  46.3662000000001E-18 M=1.0 
C224 VDD 139  147.5298E-18 M=1.0 
C225 VDD 120  39.0672E-18 M=1.0 
C226 VDD 114  56.6991E-18 M=1.0 
C227 VDD 112  188.4708E-18 M=1.0 
C228 VDD 102  54.2808E-18 M=1.0 
C229 VDD 95  56.6991E-18 M=1.0 
C230 VDD 88  79.0029E-18 M=1.0 
C231 VDD 81  99.0584999999999E-18 M=1.0 
C232 VDD 10  99.0584999999998E-18 M=1.0 
C233 VDD 3  99.2619E-18 M=1.0 
C234 VDD _DFF_OUT_4  102.1419E-18 M=1.0 
C235 VDD DFF_OUT_1  54.2808E-18 M=1.0 
C236 _DFF_OUT_3 VDD  27.1404E-18 M=1.0 
C237 DFF_OUT_0 VDD  27.1404E-18 M=1.0 
C238 _DFF_OUT_2 DFF_OUT_0  62.3646E-18 M=1.0 
C239 _DFF_OUT_1 VDD  27.1404E-18 M=1.0 
C240 GND 133  448.4826E-18 M=1.0 
C241 GND 119  209.3463E-18 M=1.0 
C242 GND 118  209.3463E-18 M=1.0 
C243 GND 117  209.3463E-18 M=1.0 
C244 GND 116  209.3463E-18 M=1.0 
C245 GND 115  209.3463E-18 M=1.0 
C246 GND 114  209.3463E-18 M=1.0 
C247 GND 102  176.4513E-18 M=1.0 
C248 GND 95  195.0066E-18 M=1.0 
C249 GND 88  203.13E-18 M=1.0 
C250 GND 81  163.881E-18 M=1.0 
C251 GND 28  564.3918E-18 M=1.0 
C252 GND 10  163.881E-18 M=1.0 
C253 GND _DFF_OUT_4  267.0786E-18 M=1.0 
C254 GND _DFF_OUT_3  525.5946E-18 M=1.0 
C255 GND DFF_OUT_0  1.0597635E-15 M=1.0 
C256 GND _DFF_OUT_1  170.2845E-18 M=1.0 
C257 _DFF_OUT_0 VDD  27.1404E-18 M=1.0 
C258 _DFF_OUT_0 GND  170.2845E-18 M=1.0 
C259 _DFF_OUT_6 VDD  176.8356E-18 M=1.0 
C260 _DFF_OUT_6 DFF_OUT_4  152.442E-18 M=1.0 
C261 DFF_OUT_2 _DFF_OUT_0  62.3646E-18 M=1.0 
C262 112 114  55.3986E-18 M=1.0 
C263 102 111  104.8338E-18 M=1.0 
C264 95 111  119.3148E-18 M=1.0 
C265 95 102  297.5607E-18 M=1.0 
C266 81 109  55.3986E-18 M=1.0 
C267 67 93  65.0448E-18 M=1.0 
C268 67 84  65.0448E-18 M=1.0 
C269 67 76  65.0448E-18 M=1.0 
C270 67 70  65.0448E-18 M=1.0 
C271 60 76  65.0448E-18 M=1.0 
C272 60 70  65.0448E-18 M=1.0 
C273 28 74  65.0448E-18 M=1.0 
C274 26 93  65.0448E-18 M=1.0 
C275 26 84  65.0448E-18 M=1.0 
C276 23 28  65.0448E-18 M=1.0 
C277 16 74  64.945575E-18 M=1.0 
C278 16 21  65.0448E-18 M=1.0 
C279 10 109  55.3986E-18 M=1.0 
C280 2 74  60.31485E-18 M=1.0 
C281 2 17  60.31485E-18 M=1.0 
C282 1 81  120.3381E-18 M=1.0 
C283 1 10  120.70665E-18 M=1.0 
C284 _DFF_OUT_4 117  299.4885E-18 M=1.0 
C285 VDD 119  34.9776E-18 M=1.0 
C286 VDD 118  34.9776E-18 M=1.0 
C287 VDD 117  34.9776E-18 M=1.0 
C288 VDD 116  34.9776E-18 M=1.0 
C289 VDD 115  34.9776E-18 M=1.0 
C290 VDD 114  34.9776E-18 M=1.0 
C291 VDD 113  34.9776E-18 M=1.0 
C292 VDD 112  80.9244E-18 M=1.0 
C293 VDD 88  55.3986E-18 M=1.0 
C294 VDD 10  65.0448E-18 M=1.0 
C295 _DFF_OUT_3 116  299.4885E-18 M=1.0 
C296 _DFF_OUT_3 VDD  65.5065E-18 M=1.0 
C297 _DFF_OUT_2 115  299.4885E-18 M=1.0 
C298 _DFF_OUT_2 VDD  710.9973E-18 M=1.0 
C299 _DFF_OUT_1 114  299.4885E-18 M=1.0 
C300 _DFF_OUT_1 DFF_OUT_1  111.933E-18 M=1.0 
C301 _DFF_OUT_1 VDD  65.5065E-18 M=1.0 
C302 GND 119  48.9483E-18 M=1.0 
C303 GND 118  48.9483E-18 M=1.0 
C304 GND 117  48.9483E-18 M=1.0 
C305 GND 116  48.9483E-18 M=1.0 
C306 GND 115  48.9483E-18 M=1.0 
C307 GND 114  48.9483E-18 M=1.0 
C308 GND 113  48.9483E-18 M=1.0 
C309 GND 102  157.7223E-18 M=1.0 
C310 GND 95  107.1702E-18 M=1.0 
C311 GND 3  21.0987E-18 M=1.0 
C312 GND _DFF_OUT_4  2.7010089E-15 M=1.0 
C313 GND _DFF_OUT_3  1.3545225E-15 M=1.0 
C314 GND DFF_OUT_0  55.3986E-18 M=1.0 
C315 GND _DFF_OUT_1  537.4107E-18 M=1.0 
C316 _DFF_OUT_0 113  299.4885E-18 M=1.0 
C317 _DFF_OUT_0 _DFF_OUT_2  55.3986E-18 M=1.0 
C318 _DFF_OUT_0 GND  2.73641355E-15 M=1.0 
C319 DFF_OUT_6 _DFF_OUT_4  37.944E-18 M=1.0 
C320 DFF_OUT_4 _DFF_OUT_4  55.3986E-18 M=1.0 
C321 DFF_OUT_4 _DFF_OUT_3  55.3986E-18 M=1.0 
C322 DFF_OUT_4 _DFF_OUT_0  69.534E-18 M=1.0 
C323 _DFF_OUT_6 119  299.4885E-18 M=1.0 
C324 _DFF_OUT_6 VDD  327.7071E-18 M=1.0 
C325 _DFF_OUT_6 DFF_OUT_0  55.3986E-18 M=1.0 
C326 _DFF_OUT_6 GND  4.345002E-15 M=1.0 
C327 _DFF_OUT_6 _DFF_OUT_0  55.3986E-18 M=1.0 
C328 DFF_OUT_3 _DFF_OUT_4  110.7972E-18 M=1.0 
C329 _DFF_OUT_5 118  299.4885E-18 M=1.0 
C330 _DFF_OUT_5 DFF_OUT_5  55.3986E-18 M=1.0 
C331 DFF_OUT_2 _DFF_OUT_2  55.3986E-18 M=1.0 
C332 DFF_OUT_2 _DFF_OUT_0  69.3378E-18 M=1.0 
C333 102 112  52.3044E-18 M=1.0 
C334 95 111  37.6677E-18 M=1.0 
C335 3 109  175.510125E-18 M=1.0 
C336 3 93  104.6088E-18 M=1.0 
C337 3 88  37.6677E-18 M=1.0 
C338 3 84  104.6088E-18 M=1.0 
C339 3 81  150.907725E-18 M=1.0 
C340 3 76  104.6088E-18 M=1.0 
C341 3 70  104.6088E-18 M=1.0 
C342 3 28  104.6088E-18 M=1.0 
C343 3 16  104.6088E-18 M=1.0 
C344 3 10  163.433925E-18 M=1.0 
C345 2 3  104.6088E-18 M=1.0 
C346 1 3  104.6088E-18 M=1.0 
C347 VDD 3  388.04715E-18 M=1.0 
C348 _DFF_OUT_2 DFF_OUT_0  173.054925E-18 M=1.0 
C349 _DFF_OUT_1 _DFF_OUT_2  781.97805E-18 M=1.0 
C350 GND 139  200.52585E-18 M=1.0 
C351 GND 3  1.0969011E-15 M=1.0 
C352 GND _DFF_OUT_3  123.4143E-18 M=1.0 
C353 GND _DFF_OUT_1  1.272761775E-15 M=1.0 
C354 _DFF_OUT_0 _DFF_OUT_1  116.5779E-18 M=1.0 
C355 _DFF_OUT_0 GND  123.4143E-18 M=1.0 
C356 _DFF_OUT_6 _DFF_OUT_2  52.3044E-18 M=1.0 
C357 _DFF_OUT_6 _DFF_OUT_1  52.3044E-18 M=1.0 
C358 DFF_OUT_2 _DFF_OUT_6  52.3044E-18 M=1.0 
C359 DFF_OUT_1 133  495.25155E-18 M=1.0 
C360 _DFF_OUT_2 DFF_OUT_1  49.5477E-18 M=1.0 
C361 _DFF_OUT_6 DFF_OUT_1  49.5477E-18 M=1.0 
C362 VDD 105  26.7138E-18 M=1.0 
C363 GND 105  109.998E-18 M=1.0 
C364 GND 98  39.285E-18 M=1.0 
C365 GND 76  230.9958E-18 M=1.0 
C366 GND 70  324.4941E-18 M=1.0 
C367 GND 28  318.9942E-18 M=1.0 
C368 GND 1  230.9958E-18 M=1.0 
C369 GND VDD  958.161150000001E-18 M=1.0 
C370 112 117  62.3646E-18 M=1.0 
C371 105 111  62.3646E-18 M=1.0 
C372 98 112  62.3646E-18 M=1.0 
C373 98 111  62.3646E-18 M=1.0 
C374 73 84  62.3646E-18 M=1.0 
C375 73 76  62.3646E-18 M=1.0 
C376 68 93  62.3646E-18 M=1.0 
C377 68 84  62.3646E-18 M=1.0 
C378 68 76  62.3646E-18 M=1.0 
C379 68 70  62.3646E-18 M=1.0 
C380 1 83  62.3646E-18 M=1.0 
C381 1 82  62.3646E-18 M=1.0 
C382 VDD 117  56.6991E-18 M=1.0 
C383 VDD 111  182.6118E-18 M=1.0 
C384 VDD 109  651.0312E-18 M=1.0 
C385 VDD 105  54.2808E-18 M=1.0 
C386 VDD 98  56.6991E-18 M=1.0 
C387 VDD 89  106.7094E-18 M=1.0 
C388 VDD 83  89.3960999999999E-18 M=1.0 
C389 VDD 82  89.3961000000001E-18 M=1.0 
C390 VDD 4  72.4293E-18 M=1.0 
C391 GND 105  176.4513E-18 M=1.0 
C392 GND 98  195.0066E-18 M=1.0 
C393 GND 90  883.9386E-18 M=1.0 
C394 GND 84  442.683E-18 M=1.0 
C395 GND 83  164.9034E-18 M=1.0 
C396 GND 82  164.9034E-18 M=1.0 
C397 GND 76  349.0218E-18 M=1.0 
C398 GND 4  254.1132E-18 M=1.0 
C399 112 117  55.3986E-18 M=1.0 
C400 105 112  78.3504E-18 M=1.0 
C401 105 111  104.8338E-18 M=1.0 
C402 98 112  50.39325E-18 M=1.0 
C403 98 111  119.3148E-18 M=1.0 
C404 98 105  297.5607E-18 M=1.0 
C405 83 109  55.3986E-18 M=1.0 
C406 82 109  55.3986E-18 M=1.0 
C407 68 93  65.0448E-18 M=1.0 
C408 68 84  65.0448E-18 M=1.0 
C409 68 76  65.0448E-18 M=1.0 
C410 28 68  65.0448E-18 M=1.0 
C411 16 77  60.31485E-18 M=1.0 
C412 2 79  60.31485E-18 M=1.0 
C413 1 109  582.5736E-18 M=1.0 
C414 1 83  55.62945E-18 M=1.0 
C415 1 82  120.3381E-18 M=1.0 
C416 VDD 28  1.6542396E-15 M=1.0 
C417 VDD 5  76.4973E-18 M=1.0 
C418 GND 111  2.95639245E-15 M=1.0 
C419 GND 105  157.7223E-18 M=1.0 
C420 GND 98  107.1702E-18 M=1.0 
C421 GND 83  293.6736E-18 M=1.0 
C422 GND 82  293.6736E-18 M=1.0 
C423 GND 2  3.4484679E-15 M=1.0 
C424 105 112  52.3044E-18 M=1.0 
C425 98 111  37.6677E-18 M=1.0 
C426 5 109  156.9132E-18 M=1.0 
C427 5 90  37.6677E-18 M=1.0 
C428 5 84  104.6088E-18 M=1.0 
C429 5 83  148.216275E-18 M=1.0 
C430 5 28  104.6088E-18 M=1.0 
C431 5 16  104.6088E-18 M=1.0 
C432 4 109  156.9132E-18 M=1.0 
C433 4 93  104.6088E-18 M=1.0 
C434 4 89  37.6677E-18 M=1.0 
C435 4 82  99.2826E-18 M=1.0 
C436 4 28  138.312E-18 M=1.0 
C437 2 5  104.6088E-18 M=1.0 
C438 GND 109  326.0655E-18 M=1.0 
C439 GND 93  230.9958E-18 M=1.0 
C440 GND 84  318.9942E-18 M=1.0 
C441 GND 16  230.9958E-18 M=1.0 
C442 GND 2  307.9944E-18 M=1.0 
C443 58 76  62.3646E-18 M=1.0 
C444 57 76  62.3646E-18 M=1.0 
C445 57 70  62.3646E-18 M=1.0 
C446 25 93  62.3646E-18 M=1.0 
C447 24 93  62.3646E-18 M=1.0 
C448 19 28  62.3646E-18 M=1.0 
C449 16 19  62.3646E-18 M=1.0 
C450 16 18  62.3646E-18 M=1.0 
C451 1 13  62.3646E-18 M=1.0 
C452 1 12  62.3646E-18 M=1.0 
C453 1 11  62.3646E-18 M=1.0 
C454 VDD 13  99.0585E-18 M=1.0 
C455 VDD 12  89.3960999999999E-18 M=1.0 
C456 VDD 11  89.3961000000001E-18 M=1.0 
C457 VDD 6  81.4212E-18 M=1.0 
C458 VDD 5  74.331E-18 M=1.0 
C459 GND 93  478.3374E-18 M=1.0 
C460 GND 70  231.26985E-18 M=1.0 
C461 GND 16  601.947900000001E-18 M=1.0 
C462 GND 13  163.881E-18 M=1.0 
C463 GND 12  164.9034E-18 M=1.0 
C464 GND 11  164.9034E-18 M=1.0 
C465 GND 6  1.5927561E-15 M=1.0 
C466 GND 5  647.3034E-18 M=1.0 
C467 GND 1  741.3435E-18 M=1.0 
C468 68 70  65.0448E-18 M=1.0 
C469 63 70  65.0448E-18 M=1.0 
C470 62 70  65.0448E-18 M=1.0 
C471 61 76  65.0448E-18 M=1.0 
C472 59 84  65.0448E-18 M=1.0 
C473 58 84  65.0448E-18 M=1.0 
C474 58 76  65.0448E-18 M=1.0 
C475 57 84  65.0448E-18 M=1.0 
C476 57 76  65.0448E-18 M=1.0 
C477 57 70  65.0448E-18 M=1.0 
C478 27 93  65.0448E-18 M=1.0 
C479 25 93  65.0448E-18 M=1.0 
C480 25 28  65.0448E-18 M=1.0 
C481 24 93  65.0448E-18 M=1.0 
C482 24 28  65.0448E-18 M=1.0 
C483 19 28  65.0448E-18 M=1.0 
C484 16 22  65.0448E-18 M=1.0 
C485 16 19  65.0448E-18 M=1.0 
C486 16 18  65.0448E-18 M=1.0 
C487 13 109  55.3986E-18 M=1.0 
C488 12 109  55.3986E-18 M=1.0 
C489 11 109  55.3986E-18 M=1.0 
C490 2 20  60.31485E-18 M=1.0 
C491 2 19  60.31485E-18 M=1.0 
C492 2 18  60.31485E-18 M=1.0 
C493 1 13  64.84635E-18 M=1.0 
C494 1 12  120.70665E-18 M=1.0 
C495 1 11  120.70665E-18 M=1.0 
C496 VDD 109  1.3851225E-15 M=1.0 
C497 VDD 70  195.1344E-18 M=1.0 
C498 VDD 13  65.0448E-18 M=1.0 
C499 VDD 12  65.0448E-18 M=1.0 
C500 VDD 11  65.0448E-18 M=1.0 
C501 GND 109  5.6389419E-15 M=1.0 
C502 GND 93  4.7994795E-15 M=1.0 
C503 GND 76  4.232592E-15 M=1.0 
C504 GND 16  3.21899985E-15 M=1.0 
C505 GND 1  3.1785741E-15 M=1.0 
C506 5 93  104.6088E-18 M=1.0 
C507 5 76  104.6088E-18 M=1.0 
C508 5 70  104.6088E-18 M=1.0 
C509 5 12  161.071875E-18 M=1.0 
C510 4 84  138.312E-18 M=1.0 
C511 4 76  104.6088E-18 M=1.0 
C512 4 70  138.312E-18 M=1.0 
C513 4 16  104.6088E-18 M=1.0 
C514 4 11  113.6682E-18 M=1.0 
C515 2 4  104.6088E-18 M=1.0 
C516 1 5  104.6088E-18 M=1.0 
C517 1 4  104.6088E-18 M=1.0 
C518 VDD 5  185.822325E-18 M=1.0 
C519 VDD 4  134.736975E-18 M=1.0 
C520 GND 5  985.361175E-18 M=1.0 
C521 GND 4  973.752075E-18 M=1.0 
C522 VDD 112  271.0665E-18 M=1.0 
C523 VDD 107  26.7138E-18 M=1.0 
C524 VDD 106  26.7138E-18 M=1.0 
C525 GND 107  109.998E-18 M=1.0 
C526 GND 106  109.998E-18 M=1.0 
C527 GND 100  39.285E-18 M=1.0 
C528 GND 99  39.285E-18 M=1.0 
C529 112 119  62.3646E-18 M=1.0 
C530 112 118  62.3646E-18 M=1.0 
C531 107 111  62.3646E-18 M=1.0 
C532 106 111  62.3646E-18 M=1.0 
C533 100 112  62.3646E-18 M=1.0 
C534 100 111  62.3646E-18 M=1.0 
C535 99 112  62.3646E-18 M=1.0 
C536 99 111  62.3646E-18 M=1.0 
C537 VDD 119  56.6991E-18 M=1.0 
C538 VDD 118  56.6991E-18 M=1.0 
C539 VDD 107  54.2808E-18 M=1.0 
C540 VDD 106  54.2808E-18 M=1.0 
C541 VDD 100  56.6991E-18 M=1.0 
C542 VDD 99  56.6991E-18 M=1.0 
C543 VDD 90  81.4212E-18 M=1.0 
C544 GND 111  314.4501E-18 M=1.0 
C545 GND 107  176.4513E-18 M=1.0 
C546 GND 106  176.4513E-18 M=1.0 
C547 GND 100  195.0066E-18 M=1.0 
C548 GND 99  195.0066E-18 M=1.0 
C549 112 119  55.3986E-18 M=1.0 
C550 112 118  55.3986E-18 M=1.0 
C551 107 112  78.3504E-18 M=1.0 
C552 107 111  104.8338E-18 M=1.0 
C553 106 112  78.3504E-18 M=1.0 
C554 106 111  104.8338E-18 M=1.0 
C555 100 112  50.39325E-18 M=1.0 
C556 100 111  119.3148E-18 M=1.0 
C557 100 107  297.5607E-18 M=1.0 
C558 99 112  50.39325E-18 M=1.0 
C559 99 111  119.3148E-18 M=1.0 
C560 99 106  297.5607E-18 M=1.0 
C561 VDD 107  65.5065E-18 M=1.0 
C562 VDD 106  65.5065E-18 M=1.0 
C563 VDD 105  65.5065E-18 M=1.0 
C564 VDD 100  34.9776E-18 M=1.0 
C565 VDD 99  34.9776E-18 M=1.0 
C566 VDD 98  34.9776E-18 M=1.0 
C567 VDD 90  55.3986E-18 M=1.0 
C568 VDD 6  55.3986E-18 M=1.0 
C569 GND 107  157.7223E-18 M=1.0 
C570 GND 106  157.7223E-18 M=1.0 
C571 GND 100  107.1702E-18 M=1.0 
C572 GND 99  107.1702E-18 M=1.0 
C573 106 112  52.3044E-18 M=1.0 
C574 100 111  37.6677E-18 M=1.0 
C575 99 111  37.6677E-18 M=1.0 
C576 VDD 112  1.6100667E-15 M=1.0 
C577 VDD 111  2.24015535E-15 M=1.0 
C578 GND 112  2.2382262E-15 M=1.0 
C579 VDD 111  362.600549999999E-18 M=1.0 
C580 VDD 104  26.7138E-18 M=1.0 
C581 VDD 103  26.7138E-18 M=1.0 
C582 GND 111  288.74475E-18 M=1.0 
C583 GND 104  109.998E-18 M=1.0 
C584 GND 103  109.998E-18 M=1.0 
C585 GND 102  109.998E-18 M=1.0 
C586 GND 97  39.285E-18 M=1.0 
C587 GND 96  39.285E-18 M=1.0 
C588 GND 95  39.285E-18 M=1.0 
C589 112 116  62.3646E-18 M=1.0 
C590 112 115  62.3646E-18 M=1.0 
C591 104 111  62.3646E-18 M=1.0 
C592 103 111  62.3646E-18 M=1.0 
C593 97 112  62.3646E-18 M=1.0 
C594 97 111  62.3646E-18 M=1.0 
C595 96 112  62.3646E-18 M=1.0 
C596 96 111  62.3646E-18 M=1.0 
C597 VDD 116  56.6991E-18 M=1.0 
C598 VDD 115  56.6991E-18 M=1.0 
C599 VDD 104  54.2808E-18 M=1.0 
C600 VDD 103  54.2808E-18 M=1.0 
C601 VDD 97  56.6991E-18 M=1.0 
C602 VDD 96  56.6991E-18 M=1.0 
C603 GND 112  630.477000000001E-18 M=1.0 
C604 GND 104  176.4513E-18 M=1.0 
C605 GND 103  176.4513E-18 M=1.0 
C606 GND 97  195.0066E-18 M=1.0 
C607 GND 96  195.0066E-18 M=1.0 
C608 GND 89  460.3761E-18 M=1.0 
C609 112 116  55.3986E-18 M=1.0 
C610 112 115  55.3986E-18 M=1.0 
C611 104 112  78.3504E-18 M=1.0 
C612 104 111  104.8338E-18 M=1.0 
C613 103 112  78.3504E-18 M=1.0 
C614 103 111  104.8338E-18 M=1.0 
C615 102 112  78.3504E-18 M=1.0 
C616 97 112  50.39325E-18 M=1.0 
C617 97 111  119.3148E-18 M=1.0 
C618 97 104  297.5607E-18 M=1.0 
C619 96 112  50.39325E-18 M=1.0 
C620 96 111  119.3148E-18 M=1.0 
C621 96 103  297.5607E-18 M=1.0 
C622 95 112  50.39325E-18 M=1.0 
C623 VDD 104  65.5065E-18 M=1.0 
C624 VDD 103  65.5065E-18 M=1.0 
C625 VDD 97  34.9776E-18 M=1.0 
C626 VDD 96  34.9776E-18 M=1.0 
C627 VDD 89  55.3986E-18 M=1.0 
C628 VDD 4  73.85085E-18 M=1.0 
C629 GND 112  7.57449225000001E-15 M=1.0 
C630 GND 104  157.7223E-18 M=1.0 
C631 GND 103  157.7223E-18 M=1.0 
C632 GND 97  107.1702E-18 M=1.0 
C633 GND 96  107.1702E-18 M=1.0 
C634 104 112  52.3044E-18 M=1.0 
C635 103 112  52.3044E-18 M=1.0 
C636 97 111  37.6677E-18 M=1.0 
C637 96 111  37.6677E-18 M=1.0 
C638 VDD 110  108.426599999999E-18 M=1.0 
C639 VDD 66  53.4276E-18 M=1.0 
C640 VDD 65  139.0689E-18 M=1.0 
C641 VDD 64  53.4276000000002E-18 M=1.0 
C642 VDD 8  157.925700000001E-18 M=1.0 
C643 GND 87  204.282E-18 M=1.0 
C644 GND 72  29.8566000000003E-18 M=1.0 
C645 GND 71  29.8566000000001E-18 M=1.0 
C646 GND 65  350.422200000001E-18 M=1.0 
C647 GND 64  182.2824E-18 M=1.0 
C648 GND 8  350.422200000001E-18 M=1.0 
C649 84 86  62.3646E-18 M=1.0 
C650 76 87  124.7292E-18 M=1.0 
C651 72 110  62.3646E-18 M=1.0 
C652 71 110  62.3646000000001E-18 M=1.0 
C653 70 86  124.7292E-18 M=1.0 
C654 66 84  124.7292E-18 M=1.0 
C655 65 76  62.3646E-18 M=1.0 
C656 65 70  62.3646E-18 M=1.0 
C657 VDD 87  27.1404E-18 M=1.0 
C658 VDD 84  76.0680000000001E-18 M=1.0 
C659 VDD 76  76.0680000000001E-18 M=1.0 
C660 VDD 72  46.674E-18 M=1.0 
C661 VDD 71  46.6740000000001E-18 M=1.0 
C662 VDD 70  76.0680000000001E-18 M=1.0 
C663 VDD 66  61.8380999999999E-18 M=1.0 
C664 VDD 65  81.0251999999999E-18 M=1.0 
C665 VDD 64  54.2808000000002E-18 M=1.0 
C666 VDD 8  59.6339999999999E-18 M=1.0 
C667 VDD A1  27.1404000000001E-18 M=1.0 
C668 GND 109  1.4370291E-15 M=1.0 
C669 GND 72  205.6968E-18 M=1.0 
C670 GND 71  188.6859E-18 M=1.0 
C671 GND 66  1.4018382E-15 M=1.0 
C672 GND 65  767.791799999999E-18 M=1.0 
C673 GND 64  167.6628E-18 M=1.0 
C674 GND 8  707.1354E-18 M=1.0 
C675 GND A1  65.1743999999999E-18 M=1.0 
C676 CLK 71  62.3646000000001E-18 M=1.0 
C677 CLK 64  62.3646E-18 M=1.0 
C678 86 87  395.226E-18 M=1.0 
C679 84 93  110.7972E-18 M=1.0 
C680 84 86  146.0529E-18 M=1.0 
C681 76 93  110.7972E-18 M=1.0 
C682 76 84  110.7972E-18 M=1.0 
C683 72 110  55.3986E-18 M=1.0 
C684 71 110  75.29535E-18 M=1.0 
C685 70 93  55.3986E-18 M=1.0 
C686 70 84  55.3986E-18 M=1.0 
C687 70 76  55.3986E-18 M=1.0 
C688 66 87  55.3986E-18 M=1.0 
C689 66 86  55.3986E-18 M=1.0 
C690 66 84  55.3986E-18 M=1.0 
C691 66 76  55.3986E-18 M=1.0 
C692 66 70  55.3986E-18 M=1.0 
C693 65 87  221.5944E-18 M=1.0 
C694 65 86  221.5944E-18 M=1.0 
C695 65 76  55.93725E-18 M=1.0 
C696 65 72  345.2904E-18 M=1.0 
C697 65 70  55.93725E-18 M=1.0 
C698 65 66  55.3986E-18 M=1.0 
C699 64 110  201.6873E-18 M=1.0 
C700 64 71  342.873E-18 M=1.0 
C701 28 84  110.7972E-18 M=1.0 
C702 28 76  110.7972E-18 M=1.0 
C703 28 70  55.3986000000001E-18 M=1.0 
C704 16 84  110.7972E-18 M=1.0 
C705 16 76  110.7972E-18 M=1.0 
C706 16 70  55.3986E-18 M=1.0 
C707 16 28  110.7972E-18 M=1.0 
C708 9 87  55.3986E-18 M=1.0 
C709 9 65  55.3986E-18 M=1.0 
C710 8 87  55.3986E-18 M=1.0 
C711 8 86  55.3986E-18 M=1.0 
C712 8 84  55.3986E-18 M=1.0 
C713 8 76  55.3986E-18 M=1.0 
C714 8 70  55.3986E-18 M=1.0 
C715 8 66  221.5944E-18 M=1.0 
C716 8 65  55.3986E-18 M=1.0 
C717 8 9  311.0229E-18 M=1.0 
C718 2 84  110.7972E-18 M=1.0 
C719 2 76  110.7972E-18 M=1.0 
C720 2 70  55.3986E-18 M=1.0 
C721 2 28  110.7972E-18 M=1.0 
C722 1 84  110.7972E-18 M=1.0 
C723 1 76  110.7972E-18 M=1.0 
C724 1 70  55.3986E-18 M=1.0 
C725 1 16  110.7972E-18 M=1.0 
C726 1 2  110.7972E-18 M=1.0 
C727 VDD 93  1.3095432E-15 M=1.0 
C728 VDD 86  1.0597788E-15 M=1.0 
C729 VDD 84  260.1792E-18 M=1.0 
C730 VDD 76  260.1792E-18 M=1.0 
C731 VDD 72  34.9776E-18 M=1.0 
C732 VDD 71  34.9776E-18 M=1.0 
C733 VDD 64  65.5065E-18 M=1.0 
C734 VDD 15  34.9776E-18 M=1.0 
C735 VDD 14  34.9776E-18 M=1.0 
C736 VDD 8  445.7412E-18 M=1.0 
C737 VDD 7  65.5065E-18 M=1.0 
C738 VDD 1  1.02615435E-15 M=1.0 
C739 VDD A1  55.3986000000001E-18 M=1.0 
C740 GND 84  4.247406E-15 M=1.0 
C741 GND 72  57.4344E-18 M=1.0 
C742 GND 71  49.167E-18 M=1.0 
C743 GND 70  3.3164172E-15 M=1.0 
C744 GND 65  1.0176642E-15 M=1.0 
C745 GND 64  222.9867E-18 M=1.0 
C746 CLK 71  90.3762E-18 M=1.0 
C747 CLK 64  143.21295E-18 M=1.0 
C748 CLK VDD  1.32828435E-15 M=1.0 
C749 84 109  209.2176E-18 M=1.0 
C750 76 109  104.6088E-18 M=1.0 
C751 70 109  104.6088E-18 M=1.0 
C752 64 110  69.4476E-18 M=1.0 
C753 28 109  104.6088E-18 M=1.0 
C754 16 109  104.6088E-18 M=1.0 
C755 2 109  104.6088E-18 M=1.0 
C756 VDD 110  1.182449475E-15 M=1.0 
C757 CLK 71  52.3044000000001E-18 M=1.0 
C758 CLK 64  94.4298E-18 M=1.0 
C759 VDD 87  53.4276E-18 M=1.0 
C760 VDD 9  62.8560000000001E-18 M=1.0 
C761 GND 86  369.279000000001E-18 M=1.0 
C762 GND 66  166.5684E-18 M=1.0 
C763 GND 9  147.7116E-18 M=1.0 
C764 28 86  62.3646E-18 M=1.0 
C765 16 87  124.7292E-18 M=1.0 
C766 9 28  124.7292E-18 M=1.0 
C767 9 16  62.3646E-18 M=1.0 
C768 2 66  124.7292E-18 M=1.0 
C769 2 9  62.3646E-18 M=1.0 
C770 1 87  124.7292E-18 M=1.0 
C771 1 66  62.3646E-18 M=1.0 
C772 VDD 86  35.2638E-18 M=1.0 
C773 VDD 28  76.0680000000001E-18 M=1.0 
C774 VDD 16  76.0680000000001E-18 M=1.0 
C775 VDD 9  35.2638E-18 M=1.0 
C776 VDD 2  76.0680000000001E-18 M=1.0 
C777 VDD 1  76.0680000000001E-18 M=1.0 
C778 GND 87  1.2551877E-15 M=1.0 
C779 GND 9  771.4521E-18 M=1.0 
C780 GND 2  757.578599999999E-18 M=1.0 
C781 28 93  110.7972E-18 M=1.0 
C782 28 86  55.93725E-18 M=1.0 
C783 28 66  180.7992E-18 M=1.0 
C784 16 93  110.7972E-18 M=1.0 
C785 16 66  219.384E-18 M=1.0 
C786 9 86  55.3986E-18 M=1.0 
C787 9 66  166.1958E-18 M=1.0 
C788 9 28  55.3986E-18 M=1.0 
C789 9 16  111.33585E-18 M=1.0 
C790 2 93  110.7972E-18 M=1.0 
C791 2 66  55.3986E-18 M=1.0 
C792 2 16  110.7972E-18 M=1.0 
C793 2 9  55.3986E-18 M=1.0 
C794 1 93  110.7972E-18 M=1.0 
C795 1 66  55.3986E-18 M=1.0 
C796 1 28  110.7972E-18 M=1.0 
C797 1 9  55.3986E-18 M=1.0 
C798 VDD 65  1.0735866E-15 M=1.0 
C799 VDD 16  874.9422E-18 M=1.0 
C800 VDD 9  204.72975E-18 M=1.0 
C801 VDD 2  874.9422E-18 M=1.0 
C802 GND 87  669.15E-18 M=1.0 
C803 GND 86  922.5963E-18 M=1.0 
C804 GND 66  1.30877685E-15 M=1.0 
C805 GND 28  2.4578964E-15 M=1.0 
C806 GND 9  1.666413E-15 M=1.0 
C807 1 109  104.6088E-18 M=1.0 
C808 VDD 7  53.4276000000002E-18 M=1.0 
C809 GND 15  29.8566000000003E-18 M=1.0 
C810 GND 14  29.8566000000001E-18 M=1.0 
C811 GND 7  182.2824E-18 M=1.0 
C812 15 110  62.3646E-18 M=1.0 
C813 14 110  62.3646000000001E-18 M=1.0 
C814 VDD 15  46.674E-18 M=1.0 
C815 VDD 14  46.6740000000001E-18 M=1.0 
C816 VDD 7  54.2808000000002E-18 M=1.0 
C817 VDD A2  27.1404000000001E-18 M=1.0 
C818 GND 15  205.6968E-18 M=1.0 
C819 GND 14  188.6859E-18 M=1.0 
C820 GND 7  167.6628E-18 M=1.0 
C821 GND A2  74.6828999999998E-18 M=1.0 
C822 CLK 14  62.3646000000001E-18 M=1.0 
C823 CLK 7  62.3646E-18 M=1.0 
C824 15 110  55.3986E-18 M=1.0 
C825 14 110  75.29535E-18 M=1.0 
C826 8 15  345.2904E-18 M=1.0 
C827 7 110  201.6873E-18 M=1.0 
C828 7 14  342.873E-18 M=1.0 
C829 VDD A2  135.8802E-18 M=1.0 
C830 GND 110  2.77924995E-15 M=1.0 
C831 GND 15  57.4344E-18 M=1.0 
C832 GND 14  49.167E-18 M=1.0 
C833 GND 7  222.9867E-18 M=1.0 
C834 CLK 14  90.3762E-18 M=1.0 
C835 CLK 7  143.21295E-18 M=1.0 
C836 7 110  69.4476E-18 M=1.0 
C837 CLK 110  181.521E-18 M=1.0 
C838 CLK VDD  1.342614375E-15 M=1.0 
C839 VDD 101  26.7138000000002E-18 M=1.0 
C840 GND 101  109.998E-18 M=1.0 
C841 GND 94  39.285E-18 M=1.0 
C842 CLK GND  190.1394E-18 M=1.0 
C843 112 113  62.3646E-18 M=1.0 
C844 101 111  62.3646E-18 M=1.0 
C845 94 112  62.3646E-18 M=1.0 
C846 94 111  62.3646E-18 M=1.0 
C847 87 93  124.7292E-18 M=1.0 
C848 66 93  62.3646E-18 M=1.0 
C849 VDD 113  56.6991E-18 M=1.0 
C850 VDD 101  54.2808E-18 M=1.0 
C851 VDD 94  56.6991E-18 M=1.0 
C852 VDD 93  76.0680000000001E-18 M=1.0 
C853 GND 113  209.3463E-18 M=1.0 
C854 GND 101  176.4513E-18 M=1.0 
C855 GND 94  195.0066E-18 M=1.0 
C856 GND 3  441.8208E-18 M=1.0 
C857 CLK GND  216.0954E-18 M=1.0 
C858 112 113  55.3986E-18 M=1.0 
C859 101 112  78.3504E-18 M=1.0 
C860 101 111  104.8338E-18 M=1.0 
C861 94 112  50.39325E-18 M=1.0 
C862 94 111  119.3148E-18 M=1.0 
C863 94 101  297.5607E-18 M=1.0 
C864 3 93  233.8533E-18 M=1.0 
C865 VDD 111  2.97806175E-15 M=1.0 
C866 VDD 102  65.5065E-18 M=1.0 
C867 VDD 101  65.5065E-18 M=1.0 
C868 VDD 95  34.9776E-18 M=1.0 
C869 VDD 94  34.9776E-18 M=1.0 
C870 VDD 87  1.3209156E-15 M=1.0 
C871 VDD 66  330.2289E-18 M=1.0 
C872 VDD 3  71.2044000000001E-18 M=1.0 
C873 GND 101  157.7223E-18 M=1.0 
C874 GND 94  107.1702E-18 M=1.0 
C875 GND 81  293.6736E-18 M=1.0 
C876 GND 8  2.6106372E-15 M=1.0 
C877 GND VDD  32.1826212E-15 M=1.0 
C878 111 112  1.8995076E-15 M=1.0 
C879 101 112  52.3044E-18 M=1.0 
C880 94 111  37.6677E-18 M=1.0 
C881 93 109  209.2176E-18 M=1.0 
C882 8 109  46.2689999999999E-18 M=1.0 
C883 VDD 109  686.405475E-18 M=1.0 
C884 GND 111  1.9640457E-15 M=1.0 
C885 GND 109  2.54006685E-15 M=1.0 
C886 VDD 86  129.6405E-18 M=1.0 
C887 VDD 85  53.4276000000002E-18 M=1.0 
C888 GND 110  129.640499999998E-18 M=1.0 
C889 GND 92  29.8566000000003E-18 M=1.0 
C890 GND 91  29.8566000000001E-18 M=1.0 
C891 GND 85  182.2824E-18 M=1.0 
C892 CLK VDD  205.067699999999E-18 M=1.0 
C893 92 110  62.3646E-18 M=1.0 
C894 91 110  62.3646000000001E-18 M=1.0 
C895 VDD 110  110.7324E-18 M=1.0 
C896 VDD 108  73.3581E-18 M=1.0 
C897 VDD 92  46.674E-18 M=1.0 
C898 VDD 91  46.6740000000001E-18 M=1.0 
C899 VDD 85  54.2808000000002E-18 M=1.0 
C900 VDD A0  27.1404000000001E-18 M=1.0 
C901 GND 110  219.1122E-18 M=1.0 
C902 GND 108  144.6444E-18 M=1.0 
C903 GND 92  205.6968E-18 M=1.0 
C904 GND 91  188.6859E-18 M=1.0 
C905 GND 86  1.0601919E-15 M=1.0 
C906 GND 85  167.6628E-18 M=1.0 
C907 GND A0  76.5845999999999E-18 M=1.0 
C908 CLK 91  62.3646000000001E-18 M=1.0 
C909 CLK 85  62.3646E-18 M=1.0 
C910 CLK VDD  163.5399E-18 M=1.0 
C911 92 110  55.3986E-18 M=1.0 
C912 91 110  75.29535E-18 M=1.0 
C913 86 92  345.2904E-18 M=1.0 
C914 85 110  201.6873E-18 M=1.0 
C915 85 91  342.873E-18 M=1.0 
C916 VDD 110  65.5065E-18 M=1.0 
C917 VDD 92  34.9776E-18 M=1.0 
C918 VDD 91  34.9776E-18 M=1.0 
C919 VDD 85  65.5065E-18 M=1.0 
C920 VDD A0  55.3986000000001E-18 M=1.0 
C921 GND 92  57.4344E-18 M=1.0 
C922 GND 91  49.167E-18 M=1.0 
C923 GND 85  222.9867E-18 M=1.0 
C924 CLK 91  90.3762E-18 M=1.0 
C925 CLK 85  143.21295E-18 M=1.0 
C926 CLK GND  81.945E-18 M=1.0 
C927 85 110  69.4476E-18 M=1.0 
C928 GND 110  1.128732075E-15 M=1.0 
C929 CLK 91  52.3044000000001E-18 M=1.0 
C930 CLK 85  94.4298E-18 M=1.0 
C931 CLK GND  3.890652525E-15 M=1.0 
C932 VDD 162  40.0707E-18 M=1.0 
C933 VDD 151  220.7817E-18 M=1.0 
C934 VDD 146  38.4993E-18 M=1.0 
C935 VDD 145  38.4993E-18 M=1.0 
C936 VDD 144  38.4993E-18 M=1.0 
C937 VDD 142  51.8561999999999E-18 M=1.0 
C938 VDD 141  51.8562000000001E-18 M=1.0 
C939 VDD 140  51.8562E-18 M=1.0 
C940 VDD 139  51.8561999999999E-18 M=1.0 
C941 VDD 134  47.142E-18 M=1.0 
C942 VDD 128  58.1418E-18 M=1.0 
C943 VDD 125  21.2139000000001E-18 M=1.0 
C944 VDD DFF_OUT_1  57.945375E-18 M=1.0 
C945 GND 152  183.8538E-18 M=1.0 
C946 GND 146  58.9275E-18 M=1.0 
C947 GND 145  58.9274999999999E-18 M=1.0 
C948 GND 144  58.9275E-18 M=1.0 
C949 GND 143  58.9275000000002E-18 M=1.0 
C950 GND 142  81.7128000000001E-18 M=1.0 
C951 GND 141  81.7127999999999E-18 M=1.0 
C952 GND 140  81.7128E-18 M=1.0 
C953 GND 139  81.7127999999999E-18 M=1.0 
C954 152 158  62.3646E-18 M=1.0 
C955 150 152  62.3646E-18 M=1.0 
C956 150 151  62.3646E-18 M=1.0 
C957 149 152  62.3646E-18 M=1.0 
C958 149 151  62.3646E-18 M=1.0 
C959 148 152  62.3646E-18 M=1.0 
C960 148 151  62.3646E-18 M=1.0 
C961 147 152  62.3646E-18 M=1.0 
C962 147 151  62.3646E-18 M=1.0 
C963 131 134  62.3646E-18 M=1.0 
C964 129 142  124.7292E-18 M=1.0 
C965 128 131  62.3646E-18 M=1.0 
C966 127 142  62.3646E-18 M=1.0 
C967 125 134  62.3646E-18 M=1.0 
C968 125 131  87.1128E-18 M=1.0 
C969 DFF_OUT_1 134  62.3646E-18 M=1.0 
C970 H_2 145  124.7292E-18 M=1.0 
C971 H_2 141  124.7292E-18 M=1.0 
C972 VDD 162  27.1404E-18 M=1.0 
C973 VDD 158  56.6991E-18 M=1.0 
C974 VDD 146  46.3662E-18 M=1.0 
C975 VDD 145  46.3662E-18 M=1.0 
C976 VDD 144  46.3662E-18 M=1.0 
C977 VDD 142  147.1671E-18 M=1.0 
C978 VDD 138  39.0672E-18 M=1.0 
C979 VDD 128  48.5262E-18 M=1.0 
C980 VDD 125  151.3224E-18 M=1.0 
C981 VDD 122  27.1404E-18 M=1.0 
C982 VDD H_2  99.4158E-18 M=1.0 
C983 VDD OUT_2  47.8611E-18 M=1.0 
C984 H_1 146  124.7292E-18 M=1.0 
C985 H_1 142  124.7292E-18 M=1.0 
C986 H_1 VDD  140.2308E-18 M=1.0 
C987 _DFF_OUT_2 VDD  121.4667E-18 M=1.0 
C988 H_0 144  124.7292E-18 M=1.0 
C989 H_0 140  124.7292E-18 M=1.0 
C990 H_0 VDD  143.8803E-18 M=1.0 
C991 GND 152  264.5658E-18 M=1.0 
C992 GND 150  125.5122E-18 M=1.0 
C993 GND 149  125.5122E-18 M=1.0 
C994 GND 148  125.5122E-18 M=1.0 
C995 GND 147  125.5122E-18 M=1.0 